* SIMetrix/SIMPLIS-style Lossy Inductor
.SUBCKT LOSSYL 1 2 vars: IC=0 VALUE=10m RSERIES=10m RSHUNT=100Meg USEIC=0
.NODE_MAP P 1
.NODE_MAP N 2
.if {USEIC}
L1 1 3 {VALUE} IC={IC}
.else
L1 1 3 {VALUE}
.endif
RSHUNT 1 3 {RSHUNT}
RSERIES 2 3 {RSERIES}
.ENDS LOSSYL

