** Copyright Catena Software 2005 All rights reserved
** SIMetrix release 5.2 Model Library
** 
** These models are believed to be accurate but Catena Software Ltd.
** offers no guarantee as to their fitness for any purpose nor do they
** accept any responsibility for damage caused directly or indirectly
** by their use.
**
**
**
** 2.10.98
** 21.1.99 RFD16N05 modified, IRF7507-P polarity corrected.
** 11.10.05 Added VDS limit spec for SOA tests
**
** This line marks this library as a system library
** Models in this library will not appear in the
** "User Models" or "New Models" categories
.systemlib
**

.subckt IRF1010N D G S
.model mosfet NMOS( LEVEL=17 VTO=3.671 RS=0.00975 KP=80.016 RD=-0.0029 TC1RD=-0.0191 RG=12.437 IS=1e-36 LIMIT(VDS)=(*, 55)
+ CGDMAX=5.00E-09 CGDMIN=2.20E-10 XG2CGD=0.4 XG1CGD=0.1 CBD=6.02E-10 VTCGD=1)
.model diode D( IS=2.04e-12 RS=0.0058 TT=8.115e-08)
M1 D G S S mosfet
D1 S D Diode
Cgs G S 2.57E-09
.ends
.subckt IRF1310N D G S
.model mosfet NMOS( LEVEL=17 VTO=3.756 RS=0.02947 KP=51.88 RD=-0.0038 TC1RD=-0.0819 RG=14.971 IS=1e-36 LIMIT(VDS)=(*, 100)
+ CGDMAX=5.00E-09 CGDMIN=1.40E-10 XG2CGD=0.6 XG1CGD=0.1 CBD=2.49E-10 VTCGD=1)
.model diode D( IS=1.09e-12 RS=0.004 TT=2.122e-07)
M1 D G S S mosfet
D1 S D Diode
Cgs G S 1.68E-09
.ends
.subckt IRF3205S D G S
.model mosfet NMOS( LEVEL=17 VTO=3.571 RS=0.00372 KP=60.926 RD=0.0001 TC1RD=0.3015 RG=15.306 IS=1e-36 LIMIT(VDS)=(*, 55)
+ CGDMAX=7.00E-09 CGDMIN=2.50E-10 XG2CGD=0.35 XG1CGD=0.1 CBD=8.89E-10 VTCGD=1.5)
.model diode D( IS=2.48e-12 RS=0.0046 TT=1.102e-07)
M1 D G S S mosfet
D1 S D Diode
Cgs G S 3.50E-09
.ends
.subckt IRF3415 D G S
.model mosfet NMOS( LEVEL=17 VTO=3.328 RS=0.02332 KP=258.067 RD=0.0097 TC1RD=0.0394 RG=8.949 IS=1e-36 LIMIT(VDS)=(*, 150)
+ CGDMAX=8.50E-09 CGDMIN=5.00E-11 XG2CGD=0.3 XG1CGD=0.1 CBD=3.44E-10 VTCGD=0)
.model diode D( IS=8.91e-12 RS=0.0052 TT=3.470e-07)
M1 D G S S mosfet
D1 S D Diode
Cgs G S 2.11E-09
.ends
.subckt IRF350 D G S
.model mosfet NMOS( LEVEL=17 VTO=3.066 RS=0.01501 KP=6.644 RD=0.2133 TC1RD=0.0108 RG=3.3 IS=1e-36 
+ CGDMAX=4.20E-09 CGDMIN=8.00E-11 XG2CGD=0.5 XG1CGD=0.1 CBD=1.60E-10 VTCGD=0)
.model diode D( IS=5.11e-14 RS=0.0104 TT=4.016e-06)
M1 D G S S mosfet
D1 S D Diode
Cgs G S 2.00E-09
.ends
.subckt IRF352 D G S
.model mosfet NMOS( LEVEL=17 VTO=3.066 RS=0.01501 KP=6.644 RD=0.2633 TC1RD=0.0106 RG=3.3 IS=1e-36 
+ CGDMAX=4.20E-09 CGDMIN=8.00E-11 XG2CGD=0.5 XG1CGD=0.1 CBD=1.60E-10 VTCGD=0)
.model diode D( IS=5.11e-14 RS=0.0104 TT=4.016e-06)
M1 D G S S mosfet
D1 S D Diode
Cgs G S 2.00E-09
.ends
.subckt IRF3710S D G S
.model mosfet NMOS( LEVEL=17 VTO=3.68 RS=0.01152 KP=45.332 RD=0.0074 TC1RD=0.0308 RG=11.686 IS=1e-36 LIMIT(VDS)=(*, 100)
+ CGDMAX=8.00E-09 CGDMIN=1.80E-10 XG2CGD=0.6 XG1CGD=0.1 CBD=3.14E-10 VTCGD=1.3)
.model diode D( IS=1.63e-12 RS=0.0055 TT=2.419e-07)
M1 D G S S mosfet
D1 S D Diode
Cgs G S 2.71E-09
.ends
.subckt IRF4905S D G S
.model mosfet PMOS( LEVEL=17 VTO=-3.528 RS=0.01341 KP=37.266 RD=-0.0016 TC1RD=-0.0441 RG=11.758 IS=1e-36 LIMIT(VDS)=(-55,*)
+ CGDMAX=7.00E-09 CGDMIN=3.00E-10 XG2CGD=0.25 XG1CGD=0.1 CBD=6.85E-10 VTCGD=1.5)
.model diode D( IS=1.87e-12 RS=0.0034 TT=8.947e-08)
M1 D G S S mosfet
D1 D S Diode
Cgs G S 2.62E-09
.ends
.subckt IRF510 D G S
.model mosfet NMOS( LEVEL=17 VTO=3.886 RS=0.4674 KP=50.966 RD=0.0294 TC1RD=0.1721 RG=24.648 IS=1e-36 LIMIT(VDS)=(*, 100)
+ CGDMAX=3.00E-10 CGDMIN=4.00E-12 XG2CGD=0.5 XG1CGD=0.1 CBD=1.12E-10 VTCGD=0.7)
.model diode D( IS=3.66e-13 RS=0.0546 TT=1.614e-07)
M1 D G S S mosfet
D1 S D Diode
Cgs G S 1.70E-10
.ends
.subckt IRF512 D G S
.model mosfet NMOS( LEVEL=17 VTO=3.886 RS=0.4674 KP=50.966 RD=0.1294 TC1RD=0.047 RG=24.6476537966213 IS=1e-36 LIMIT(VDS)=(*, 100)
+ CGDMAX=3.00E-10 CGDMIN=4.00E-12 XG2CGD=0.5 XG1CGD=0.1 CBD=1.12E-10 VTCGD=0.7)
.model diode D( IS=3.66e-13 RS=0.0546 TT=1.614e-07)
M1 D G S S mosfet
D1 S D Diode
Cgs G S 1.70E-10
.ends
.subckt IRF520 D G S
.model mosfet NMOS( LEVEL=17 VTO=3.696 RS=0.23741 KP=17.377 RD=0.0035 TC1RD=0.6953 RG=16 IS=1e-36 LIMIT(VDS)=(*, 100)
+ CGDMAX=7.00E-10 CGDMIN=1.80E-11 XG2CGD=0.5 XG1CGD=0.1 CBD=1.80E-10 VTCGD=0.8)
.model diode D( IS=7.53e-13 RS=0.0346 TT=1.475e-07)
M1 D G S S mosfet
D1 S D Diode
Cgs G S 3.26E-10
.ends
.subckt IRF5210S D G S
.model mosfet PMOS( LEVEL=17 VTO=-3.684 RS=0.03246 KP=13.558 RD=0.0039 TC1RD=0.0776 RG=7.03 IS=1e-36 LIMIT(VDS)=(-100,*)
+ CGDMAX=8.20E-09 CGDMIN=1.00E-10 XG2CGD=0.275 XG1CGD=0.1 CBD=5.51E-10 VTCGD=0)
.model diode D( IS=1.10e-12 RS=0.008 TT=1.998e-07)
M1 D G S S mosfet
D1 D S Diode
Cgs G S 2.29E-09
.ends
.subckt IRF522 D G S
.model mosfet NMOS( LEVEL=17 VTO=3.696 RS=0.23741 KP=17.377 RD=0.0535 TC1RD=0.0548 RG=16 IS=1e-36 LIMIT(VDS)=(*, 100)
+ CGDMAX=7.00E-10 CGDMIN=1.80E-11 XG2CGD=0.5 XG1CGD=0.1 CBD=1.80E-10 VTCGD=0.8)
.model diode D( IS=7.53e-13 RS=0.0346 TT=1.475e-07)
M1 D G S S mosfet
D1 S D Diode
Cgs G S 3.26E-10
.ends
.subckt IRF530 D G S
.model mosfet NMOS( LEVEL=17 VTO=3.705 RS=0.05585 KP=4.543 RD=0.0492 TC1RD=0.031 RG=7.5 IS=1e-36 LIMIT(VDS)=(*, 100)
+ CGDMAX=1.70E-09 CGDMIN=3.00E-11 XG2CGD=0.5 XG1CGD=0.1 CBD=2.61E-10 VTCGD=0.9)
.model diode D( IS=1.62e-12 RS=0.0147 TT=1.929e-07)
M1 D G S S mosfet
D1 S D Diode
Cgs G S 6.17E-10
.ends
.subckt IRF532 D G S
.model mosfet NMOS( LEVEL=17 VTO=3.705 RS=0.05585 KP=4.543 RD=0.1092 TC1RD=0.0207 RG=7.5 IS=1e-36 LIMIT(VDS)=(*, 100)
+ CGDMAX=1.70E-09 CGDMIN=3.00E-11 XG2CGD=0.5 XG1CGD=0.1 CBD=2.61E-10 VTCGD=0.9)
.model diode D( IS=1.62e-12 RS=0.0147 TT=1.929e-07)
M1 D G S S mosfet
D1 S D Diode
Cgs G S 6.17E-10
.ends
.subckt IRF540 D G S
.model mosfet NMOS( LEVEL=17 VTO=3.542 RS=0.03646 KP=35.149 RD=0.0291 TC1RD=0.0222 RG=6 IS=1e-36 LIMIT(VDS)=(*, 100)
+ CGDMAX=2.70E-09 CGDMIN=4.00E-11 XG2CGD=0.5 XG1CGD=0.1 CBD=4.76E-10 VTCGD=0.7)
.model diode D( IS=1.32e-12 RS=0.01 TT=2.305e-07)
M1 D G S S mosfet
D1 S D Diode
Cgs G S 1.54E-09
.ends
.subckt IRF540N D G S
.model mosfet NMOS( LEVEL=17 VTO=3.708 RS=0.03657 KP=83.934 RD=0.0031 TC1RD=0.1438 RG=15.08 IS=1e-36 LIMIT(VDS)=(*, 100)
+ CGDMAX=4.00E-09 CGDMIN=8.00E-11 XG2CGD=0.6 XG1CGD=0.1 CBD=1.87E-10 VTCGD=1)
.model diode D( IS=2.84e-15 RS=0.0014 TT=2.179e-07)
M1 D G S S mosfet
D1 S D Diode
Cgs G S 1.21E-09
.ends
.subckt IRF542 D G S
.model mosfet NMOS( LEVEL=17 VTO=3.542 RS=0.03646 KP=35.149 RD=0.0491 TC1RD=0.017 RG=6 IS=1e-36 LIMIT(VDS)=(*, 100)
+ CGDMAX=2.70E-09 CGDMIN=4.00E-11 XG2CGD=0.5 XG1CGD=0.1 CBD=4.76E-10 VTCGD=0.7)
.model diode D( IS=1.32e-12 RS=0.01 TT=2.305e-07)
M1 D G S S mosfet
D1 S D Diode
Cgs G S 1.54E-09
.ends
.subckt IRF612 D G S
.model mosfet NMOS( LEVEL=17 VTO=3.873 RS=0.3568 KP=1.263 RD=1.014 TC1RD=0.0184 RG=35 IS=1e-36 LIMIT(VDS)=(*, 200)
+ CGDMAX=3.00E-10 CGDMIN=3.00E-12 XG2CGD=0.3 XG1CGD=0.1 CBD=2.47E-11 VTCGD=0)
.model diode D( IS=1.26e-13 RS=0.0576 TT=4.444e-07)
M1 D G S S mosfet
D1 S D Diode
Cgs G S 1.28E-10
.ends
.subckt IRF620 D G S
.model mosfet NMOS( LEVEL=17 VTO=3.944 RS=0.2527 KP=6.569 RD=0.2222 TC1RD=0.0241 RG=19 IS=1e-36 LIMIT(VDS)=(*, 200)
+ CGDMAX=1.00E-09 CGDMIN=2.00E-12 XG2CGD=0.5 XG1CGD=0.1 CBD=7.25E-11 VTCGD=1)
.model diode D( IS=3.19e-13 RS=0.027 TT=3.393e-07)
M1 D G S S mosfet
D1 S D Diode
Cgs G S 2.17E-10
.ends
.subckt IRF622 D G S
.model mosfet NMOS( LEVEL=17 VTO=3.944 RS=0.2527 KP=6.569 RD=0.5222 TC1RD=0.0166 RG=19 IS=1e-36 LIMIT(VDS)=(*, 200)
+ CGDMAX=1.00E-09 CGDMIN=2.00E-12 XG2CGD=0.5 XG1CGD=0.1 CBD=7.25E-11 VTCGD=1)
.model diode D( IS=3.19e-13 RS=0.027 TT=3.393e-07)
M1 D G S S mosfet
D1 S D Diode
Cgs G S 2.17E-10
.ends
.subckt IRF630 D G S
.model mosfet NMOS( LEVEL=17 VTO=3.804 RS=0.04822 KP=4.366 RD=0.1648 TC1RD=0.0153 RG=8 IS=1e-36 LIMIT(VDS)=(*, 200)
+ CGDMAX=2.50E-09 CGDMIN=4.00E-12 XG2CGD=0.5 XG1CGD=0.1 CBD=1.85E-10 VTCGD=1)
.model diode D( IS=1.13e-12 RS=0.0194 TT=3.643e-07)
M1 D G S S mosfet
D1 S D Diode
Cgs G S 7.20E-10
.ends
.subckt IRF632 D G S
.model mosfet NMOS( LEVEL=17 VTO=3.804 RS=0.04822 KP=4.366 RD=0.3148 TC1RD=0.0132 RG=8 IS=1e-36 LIMIT(VDS)=(*, 200)
+ CGDMAX=2.50E-09 CGDMIN=4.00E-12 XG2CGD=0.5 XG1CGD=0.1 CBD=1.85E-10 VTCGD=1)
.model diode D( IS=1.13e-12 RS=0.0194 TT=3.643e-07)
M1 D G S S mosfet
D1 S D Diode
Cgs G S 7.20E-10
.ends
.subckt IRF640 D G S
.model mosfet NMOS( LEVEL=17 VTO=3.869 RS=0.01909 KP=7.151 RD=0.0981 TC1RD=0.0126 RG=6 IS=1e-36 LIMIT(VDS)=(*, 200)
+ CGDMAX=4.00E-09 CGDMIN=1.00E-11 XG2CGD=0.5 XG1CGD=0.1 CBD=3.38E-10 VTCGD=0.8)
.model diode D( IS=2.10e-12 RS=0.0125 TT=4.673e-07)
M1 D G S S mosfet
D1 S D Diode
Cgs G S 1.19E-09
.ends
.subckt IRF642 D G S
.model mosfet NMOS( LEVEL=17 VTO=3.869 RS=0.01909 KP=7.151 RD=0.1581 TC1RD=0.0115 RG=6 IS=1e-36 LIMIT(VDS)=(*, 200)
+ CGDMAX=4.00E-09 CGDMIN=1.00E-11 XG2CGD=0.5 XG1CGD=0.1 CBD=3.38E-10 VTCGD=0.8)
.model diode D( IS=2.10e-12 RS=0.0125 TT=4.673e-07)
M1 D G S S mosfet
D1 S D Diode
Cgs G S 1.19E-09
.ends
.subckt IRF710 D G S
.model mosfet NMOS( LEVEL=17 VTO=3.9 RS=0.76234 KP=17.232 RD=2.5281 TC1RD=0.018 RG=15 IS=1e-36 LIMIT(VDS)=(*, 400)
+ CGDMAX=4.00E-10 CGDMIN=4.00E-12 XG2CGD=0.5 XG1CGD=0.1 CBD=3.57E-11 VTCGD=0)
.model diode D( IS=2.24e-13 RS=0.0608 TT=1.602e-06)
M1 D G S S mosfet
D1 S D Diode
Cgs G S 1.64E-10
.ends
.subckt IRF7101 D G S
.model mosfet NMOS( LEVEL=17 VTO=2.338 RS=0.17394 KP=52.902 RD=-0.0964 TC1RD=-0.0042 RG=31.516 IS=1e-36 LIMIT(VDS)=(*, 20)
+ CGDMAX=5.60E-10 CGDMIN=4.00E-11 XG2CGD=0.39 XG1CGD=0.1 CBD=2.18E-10 VTCGD=0)
.model diode D( IS=3.66e-13 RS=0.0604 TT=6.380e-08)
M1 D G S S mosfet
D1 S D Diode
Cgs G S 3.00E-10
.ends
.subckt IRF7105-N D G S
.model mosfet NMOS( LEVEL=17 VTO=2.884 RS=0.1988 KP=53.612 RD=-0.1214 TC1RD=-0.0033 RG=23.095 IS=1e-36 LIMIT(VDS)=(*, 25)
+ CGDMAX=6.70E-10 CGDMIN=3.00E-11 XG2CGD=0.5 XG1CGD=0.1 CBD=1.65E-10 VTCGD=0)
.model diode D( IS=2.54e-13 RS=0.0472 TT=7.517e-08)
M1 D G S S mosfet
D1 S D Diode
Cgs G S 2.08E-10
.ends
.subckt IRF7105-P D G S
.model mosfet PMOS( LEVEL=17 VTO=-2.497 RS=0.20042 KP=5.531 RD=-0.0245 TC1RD=-0.0358 RG=33.545 IS=1e-36 LIMIT(VDS)=(-25,*)
+ CGDMAX=6.50E-10 CGDMIN=4.00E-11 XG2CGD=0.42 XG1CGD=0.1 CBD=1.67E-10 VTCGD=0)
.model diode D( IS=1.12e-18 RS=0.215 TT=2.305e-07)
M1 D G S S mosfet
D1 D S Diode
Cgs G S 2.28E-10
.ends
.subckt IRF712 D G S
.model mosfet NMOS( LEVEL=17 VTO=3.9 RS=0.76234 KP=17.232 RD=2.8281 TC1RD=0.0175 RG=15 IS=1e-36 LIMIT(VDS)=(*, 400)
+ CGDMAX=4.00E-10 CGDMIN=4.00E-12 XG2CGD=0.5 XG1CGD=0.1 CBD=3.57E-11 VTCGD=0)
.model diode D( IS=2.24e-13 RS=0.0608 TT=1.602e-06)
M1 D G S S mosfet
D1 S D Diode
Cgs G S 1.64E-10
.ends
.subckt IRF720 D G S
.model mosfet NMOS( LEVEL=17 VTO=4.146 RS=0.01147 KP=24.936 RD=1.4817 TC1RD=0.0139 RG=10 IS=1e-36 LIMIT(VDS)=(*, 400)
+ CGDMAX=1.20E-09 CGDMIN=5.00E-12 XG2CGD=0.5 XG1CGD=0.1 CBD=7.65E-11 VTCGD=0.5)
.model diode D( IS=9.62e-13 RS=0.0413 TT=1.288e-06)
M1 D G S S mosfet
D1 S D Diode
Cgs G S 3.56E-10
.ends
.subckt IRF7201 D G S
.model mosfet NMOS( LEVEL=17 VTO=2.911 RS=0.05925 KP=161.717 RD=-0.0361 TC1RD=-0.0039 RG=40.403 IS=1e-36 LIMIT(VDS)=(*, 30)
+ CGDMAX=1.50E-09 CGDMIN=5.00E-11 XG2CGD=0.48 XG1CGD=0.1 CBD=5.54E-10 VTCGD=0)
.model diode D( IS=1.25e-12 RS=0.0334 TT=3.188e-07)
M1 D G S S mosfet
D1 S D Diode
Cgs G S 7.51E-10
.ends
.subckt IRF722 D G S
.model mosfet NMOS( LEVEL=17 VTO=4.146 RS=0.01147 KP=24.936 RD=1.7817 TC1RD=0.0139 RG=10 IS=1e-36 LIMIT(VDS)=(*, 400)
+ CGDMAX=1.20E-09 CGDMIN=5.00E-12 XG2CGD=0.5 XG1CGD=0.1 CBD=7.65E-11 VTCGD=0.5)
.model diode D( IS=9.62e-13 RS=0.0413 TT=1.288e-06)
M1 D G S S mosfet
D1 S D Diode
Cgs G S 3.56E-10
.ends
.subckt IRF730 D G S
.model mosfet NMOS( LEVEL=17 VTO=3.826 RS=0.02372 KP=2.754 RD=0.7175 TC1RD=0.0144 RG=5 IS=1e-36 LIMIT(VDS)=(*, 400)
+ CGDMAX=2.50E-09 CGDMIN=5.00E-12 XG2CGD=0.5 XG1CGD=0.1 CBD=1.44E-10 VTCGD=1)
.model diode D( IS=5.14e-13 RS=0.0198 TT=1.225e-06)
M1 D G S S mosfet
D1 S D Diode
Cgs G S 6.23E-10
.ends
.subckt IRF7301 D G S
.model mosfet NMOS( LEVEL=17 VTO=1.08 RS=0.01704 KP=26.176 RD=0.0118 TC1RD=0.0093 RG=41.538 IS=1e-36 LIMIT(VDS)=(*, 20)
+ CGDMAX=1.50E-09 CGDMIN=1.00E-10 XG2CGD=0.5 XG1CGD=0.1 CBD=1.71E-10 VTCGD=1)
.model diode D( IS=1.15e-11 RS=0.0742 TT=8.657e-08)
M1 D G S S mosfet
D1 S D Diode
Cgs G S 5.36E-10
.ends
.subckt IRF7304 D G S
.model mosfet PMOS( LEVEL=17 VTO=-1.341 RS=0.05696 KP=36.131 RD=0.0063 TC1RD=0.0256 RG=10.482 IS=1e-36 LIMIT(VDS)=(-20,*)
+ CGDMAX=1.97E-09 CGDMIN=1.20E-10 XG2CGD=0.5 XG1CGD=0.1 CBD=1.36E-10 VTCGD=0)
.model diode D( IS=2.81e-12 RS=0.0383 TT=1.108e-07)
M1 D G S S mosfet
D1 D S Diode
Cgs G S 4.38E-10
.ends
.subckt IRF7306 D G S
.model mosfet PMOS( LEVEL=17 VTO=-2.515 RS=0.08008 KP=14.384 RD=-0.0094 TC1RD=-0.0298 RG=29.337 IS=1e-36 LIMIT(VDS)=(-30,*)
+ CGDMAX=1.00E-09 CGDMIN=7.00E-11 XG2CGD=0.5 XG1CGD=0.1 CBD=1.17E-10 VTCGD=0)
.model diode D( IS=3.03e-13 RS=0.0344 TT=1.152e-07)
M1 D G S S mosfet
D1 D S Diode
Cgs G S 3.59E-10
.ends
.subckt IRF7307-P D G S
.model mosfet PMOS( LEVEL=17 VTO=-1.191 RS=0.02497 KP=53.831 RD=0.0414 TC1RD=0.0067 RG=16.566 IS=1e-36 LIMIT(VDS)=(-20,*)
+ CGDMAX=2.00E-09 CGDMIN=5.00E-11 XG2CGD=0.39 XG1CGD=0.1 CBD=1.71E-10 VTCGD=1)
.model diode D( IS=1.03e-11 RS=0.072 TT=1.108e-07)
M1 D G S S mosfet
D1 D S Diode
Cgs G S 5.32E-10
.ends
.subckt IRF7309-N D G S
.model mosfet NMOS( LEVEL=17 VTO=2.747 RS=0.04654 KP=42.242 RD=-0.0098 TC1RD=-0.0221 RG=44.861 IS=1e-36 LIMIT(VDS)=(*, 30)
+ CGDMAX=8.00E-10 CGDMIN=6.90E-11 XG2CGD=0.5 XG1CGD=0.1 CBD=1.27E-10 VTCGD=0)
.model diode D( IS=2.61e-13 RS=0.067 TT=7.634e-08)
M1 D G S S mosfet
D1 S D Diode
Cgs G S 4.57E-10
.ends
.subckt IRF7309-P D G S
.model mosfet PMOS( LEVEL=17 VTO=-2.586 RS=0.07923 KP=15.851 RD=-0.0077 TC1RD=-0.0368 RG=27.475 IS=1e-36 LIMIT(VDS)=(-30,*)
+ CGDMAX=1.00E-09 CGDMIN=7.50E-11 XG2CGD=0.5 XG1CGD=0.1 CBD=1.18E-10 VTCGD=0)
.model diode D( IS=2.94e-13 RS=0.0342 TT=1.014e-07)
M1 D G S S mosfet
D1 D S Diode
Cgs G S 3.60E-10
.ends
.subckt IRF7311 D G S
.model mosfet NMOS( LEVEL=17 VTO=1.147 RS=0.0075 KP=49.255 RD=0.0096 TC1RD=0.0085 RG=5.972 IS=1e-36 LIMIT(VDS)=(*, 20)
+ CGDMAX=2.80E-09 CGDMIN=1.00E-10 XG2CGD=0.53 XG1CGD=0.1 CBD=2.76E-10 VTCGD=0.5)
.model diode D( IS=3.46e-12 RS=0.025 TT=1.159e-07)
M1 D G S S mosfet
D1 S D Diode
Cgs G S 7.17E-10
.ends
.subckt IRF7313 D G S
.model mosfet NMOS( LEVEL=17 VTO=2.168 RS=0.01941 KP=31.824 RD=-0.0002 TC1RD=-0.4895 RG=7.129 IS=1e-36 LIMIT(VDS)=(*, 30)
+ CGDMAX=1.46E-09 CGDMIN=5.00E-11 XG2CGD=0.23 XG1CGD=0.1 CBD=2.62E-10 VTCGD=0)
.model diode D( IS=4.35e-13 RS=0.0205 TT=9.128e-08)
M1 D G S S mosfet
D1 S D Diode
Cgs G S 5.53E-10
.ends
.subckt IRF732 D G S
.model mosfet NMOS( LEVEL=17 VTO=3.826 RS=0.02372 KP=2.754 RD=0.9175 TC1RD=0.0142 RG=5 IS=1e-36 LIMIT(VDS)=(*, 400)
+ CGDMAX=2.50E-09 CGDMIN=5.00E-12 XG2CGD=0.5 XG1CGD=0.1 CBD=1.44E-10 VTCGD=1)
.model diode D( IS=5.14e-13 RS=0.0198 TT=1.225e-06)
M1 D G S S mosfet
D1 S D Diode
Cgs G S 6.23E-10
.ends
.subckt IRF740 D G S
.model mosfet NMOS( LEVEL=17 VTO=3.907 RS=0.03281 KP=9.087 RD=0.4191 TC1RD=0.0138 RG=5 IS=1e-36 LIMIT(VDS)=(*, 400)
+ CGDMAX=3.00E-09 CGDMIN=1.00E-11 XG2CGD=0.5 XG1CGD=0.1 CBD=1.69E-10 VTCGD=0.2)
.model diode D( IS=3.73e-11 RS=0.0204 TT=9.415e-07)
M1 D G S S mosfet
D1 S D Diode
Cgs G S 1.17E-09
.ends
.subckt IRF7401 D G S
.model mosfet NMOS( LEVEL=17 VTO=1.29 RS=0.01603 KP=154.144 RD=-0.0005 TC1RD=-0.1165 RG=17.65 IS=1e-36 LIMIT(VDS)=(*, 20)
+ CGDMAX=4.37E-09 CGDMIN=1.00E-10 XG2CGD=0.43 XG1CGD=0.1 CBD=4.73E-10 VTCGD=0)
.model diode D( IS=2.12e-11 RS=0.062 TT=4.813e-08)
M1 D G S S mosfet
D1 S D Diode
Cgs G S 1.36E-09
.ends
.subckt IRF7403 D G S
.model mosfet NMOS( LEVEL=17 VTO=2.749 RS=0.01586 KP=89.86 RD=0.0002 TC1RD=0.3884 RG=29.338 IS=1e-36 LIMIT(VDS)=(*, 30)
+ CGDMAX=2.20E-09 CGDMIN=5.00E-11 XG2CGD=0.28 XG1CGD=0.1 CBD=4.20E-10 VTCGD=0.5)
.model diode D( IS=7.31e-13 RS=0.0652 TT=7.217e-08)
M1 D G S S mosfet
D1 S D Diode
Cgs G S 1.12E-09
.ends
.subckt IRF7404 D G S
.model mosfet PMOS( LEVEL=17 VTO=-1.258 RS=0.02325 KP=50.562 RD=0.0026 TC1RD=0.0245 RG=4.885 IS=1e-36 LIMIT(VDS)=(-20,*)
+ CGDMAX=3.80E-09 CGDMIN=2.70E-10 XG2CGD=0.5 XG1CGD=0.1 CBD=4.58E-10 VTCGD=0)
.model diode D( IS=1.20e-11 RS=0.0315 TT=1.236e-07)
M1 D G S S mosfet
D1 D S Diode
Cgs G S 1.20E-09
.ends
.subckt IRF7406 D G S
.model mosfet PMOS( LEVEL=17 VTO=-2.539 RS=0.03262 KP=35.885 RD=-0.0004 TC1RD=-0.3821 RG=22.662 IS=1e-36 LIMIT(VDS)=(-30,*)
+ CGDMAX=2.50E-09 CGDMIN=1.80E-10 XG2CGD=0.5 XG1CGD=0.1 CBD=3.07E-10 VTCGD=0)
.model diode D( IS=3.48e-09 RS=0.0232 TT=6.215e-08)
M1 D G S S mosfet
D1 D S Diode
Cgs G S 8.93E-10
.ends
.subckt IRF740LC D G S
.model mosfet NMOS( LEVEL=17 VTO=4.556 RS=0.03084 KP=7.004 RD=0.3829 TC1RD=0.0119 RG=16.76 IS=1e-36 LIMIT(VDS)=(*, 400)
+ CGDMAX=1.27E-09 CGDMIN=1.00E-11 XG2CGD=0.5 XG1CGD=0.1 CBD=4.51E-10 VTCGD=0)
.model diode D( IS=1.49e-12 RS=0.0202 TT=3.800e-07)
M1 D G S S mosfet
D1 S D Diode
Cgs G S 1.06E-09
.ends
.subckt IRF7413 D G S
.model mosfet NMOS( LEVEL=17 VTO=2.6 RS=0.00453 KP=64.079 RD=0.0022 TC1RD=0.0181 RG=29.286 IS=1e-36 LIMIT(VDS)=(*, 30)
+ CGDMAX=3.00E-09 CGDMIN=1.80E-10 XG2CGD=0.5 XG1CGD=0.1 CBD=4.97E-10 VTCGD=0)
.model diode D( IS=2.92e-11 RS=0.0353 TT=9.331e-08)
M1 D G S S mosfet
D1 S D Diode
Cgs G S 1.63E-09
.ends
.subckt IRF7416 D G S
.model mosfet PMOS( LEVEL=17 VTO=-2.474 RS=0.01442 KP=28.454 RD=-0.0031 TC1RD=-0.017 RG=18.462 IS=1e-36 LIMIT(VDS)=(-30,*)
+ CGDMAX=4.00E-09 CGDMIN=3.30E-10 XG2CGD=0.5 XG1CGD=0.1 CBD=5.10E-10 VTCGD=0)
.model diode D( IS=1.02e-12 RS=0.0053 TT=7.028e-08)
M1 D G S S mosfet
D1 D S Diode
Cgs G S 1.27E-09
.ends
.subckt IRF742 D G S
.model mosfet NMOS( LEVEL=17 VTO=3.907 RS=0.03281 KP=9.087 RD=0.6291 TC1RD=0.0133 RG=5 IS=1e-36 LIMIT(VDS)=(*, 400)
+ CGDMAX=3.00E-09 CGDMIN=1.00E-11 XG2CGD=0.5 XG1CGD=0.1 CBD=1.69E-10 VTCGD=0.2)
.model diode D( IS=3.73e-11 RS=0.0204 TT=9.415e-07)
M1 D G S S mosfet
D1 S D Diode
Cgs G S 1.17E-09
.ends
.subckt IRF7501 D G S
.model mosfet NMOS( LEVEL=17 VTO=1.477 RS=0.03836 KP=16.341 RD=0.0494 TC1RD=0.0078 RG=35.321 IS=1e-36 LIMIT(VDS)=(*, 20)
+ CGDMAX=8.75E-10 CGDMIN=2.00E-11 XG2CGD=0.47 XG1CGD=0.1 CBD=7.50E-11 VTCGD=1)
.model diode D( IS=6.94e-13 RS=0.0584 TT=7.243e-08)
M1 D G S S mosfet
D1 S D Diode
Cgs G S 2.02E-10
.ends
.subckt IRF7503 D G S
.model mosfet NMOS( LEVEL=17 VTO=2.51 RS=0.05175 KP=7.169 RD=0.0336 TC1RD=0.0131 RG=34.279 IS=1e-36 LIMIT(VDS)=(*, 30)
+ CGDMAX=4.80E-10 CGDMIN=2.00E-11 XG2CGD=0.37 XG1CGD=0.1 CBD=7.20E-11 VTCGD=0)
.model diode D( IS=9.36e-14 RS=0.0676 TT=7.543e-08)
M1 D G S S mosfet
D1 S D Diode
Cgs G S 1.85E-10
.ends
.subckt IRF7507-N D G S
.model mosfet NMOS( LEVEL=17 VTO=1.524 RS=0.05464 KP=26.82 RD=0.0408 TC1RD=0.0107 RG=39.714 IS=1e-36 LIMIT(VDS)=(*, 20)
+ CGDMAX=8.76E-10 CGDMIN=3.00E-11 XG2CGD=0.5 XG1CGD=0.1 CBD=7.50E-11 VTCGD=1.4)
.model diode D( IS=6.83e-13 RS=0.0562 TT=7.243e-08)
M1 D G S S mosfet
D1 S D Diode
Cgs G S 2.05E-10
.ends
.subckt IRF7507-P D G S
.model mosfet PMOS( LEVEL=17 VTO=-1.733 RS=0.14336 KP=15.518 RD=0.0494 TC1RD=0.017 RG=44.62 IS=1e-36 LIMIT(VDS)=(-20,*)
+ CGDMAX=8.88E-10 CGDMIN=4.00E-11 XG2CGD=0.5 XG1CGD=0.1 CBD=7.56E-11 VTCGD=1.2)
.model diode D( IS=4.55e-13 RS=0.047 TT=1.486e-07)
M1 D G S S mosfet
D1 D S Diode
Cgs G S 1.81E-10
.ends
.subckt IRF7603 D G S
.model mosfet NMOS( LEVEL=17 VTO=2.886 RS=0.0433 KP=78.644 RD=-0.0171 TC1RD=-0.0081 RG=43.59 IS=1e-36 LIMIT(VDS)=(*, 30)
+ CGDMAX=1.16E-09 CGDMIN=5.00E-11 XG2CGD=0.32 XG1CGD=0.1 CBD=1.70E-10 VTCGD=0.8)
.model diode D( IS=4.83e-13 RS=0.0377 TT=7.677e-08)
M1 D G S S mosfet
D1 S D Diode
Cgs G S 4.60E-10
.ends
.subckt IRF820 D G S
.model mosfet NMOS( LEVEL=17 VTO=3.81 RS=0.06816 KP=2.149 RD=2.3567 TC1RD=0.0127 RG=15 IS=1e-36 LIMIT(VDS)=(*, 500)
+ CGDMAX=1.00E-09 CGDMIN=1.06E-11 XG2CGD=0.5 XG1CGD=0.1 CBD=6.97E-11 VTCGD=0)
.model diode D( IS=3.50e-13 RS=0.0343 TT=1.657e-06)
M1 D G S S mosfet
D1 S D Diode
Cgs G S 3.18E-10
.ends
.subckt IRF822 D G S
.model mosfet NMOS( LEVEL=17 VTO=3.81 RS=0.06816 KP=2.149 RD=2.8567 TC1RD=0.0126 RG=15 IS=1e-36 LIMIT(VDS)=(*, 500)
+ CGDMAX=1.00E-09 CGDMIN=1.06E-11 XG2CGD=0.5 XG1CGD=0.1 CBD=6.97E-11 VTCGD=0)
.model diode D( IS=3.50e-13 RS=0.0343 TT=1.657e-06)
M1 D G S S mosfet
D1 S D Diode
Cgs G S 3.18E-10
.ends
.subckt IRF830 D G S
.model mosfet NMOS( LEVEL=17 VTO=3.54 RS=0.0499 KP=4.502 RD=1.2157 TC1RD=0.0126 RG=7 IS=1e-36 LIMIT(VDS)=(*, 500)
+ CGDMAX=1.61E-09 CGDMIN=2.53E-11 XG2CGD=0.5 XG1CGD=0.1 CBD=5.90E-11 VTCGD=0)
.model diode D( IS=1.88e-13 RS=0.0175 TT=2.346e-06)
M1 D G S S mosfet
D1 S D Diode
Cgs G S 5.31E-10
.ends
.subckt IRF832 D G S
.model mosfet NMOS( LEVEL=17 VTO=3.54 RS=0.0499 KP=4.502 RD=1.4157 TC1RD=0.0125 RG=7 IS=1e-36 LIMIT(VDS)=(*, 500)
+ CGDMAX=1.61E-09 CGDMIN=2.53E-11 XG2CGD=0.5 XG1CGD=0.1 CBD=5.90E-11 VTCGD=0)
.model diode D( IS=1.88e-13 RS=0.0175 TT=2.346e-06)
M1 D G S S mosfet
D1 S D Diode
Cgs G S 5.31E-10
.ends
.subckt IRF840 D G S
.model mosfet NMOS( LEVEL=17 VTO=3.773 RS=0.03742 KP=11.192 RD=0.7482 TC1RD=0.0116 RG=5 IS=1e-36 LIMIT(VDS)=(*, 500)
+ CGDMAX=3.00E-09 CGDMIN=1.00E-11 XG2CGD=0.5 XG1CGD=0.1 CBD=9.87E-11 VTCGD=0)
.model diode D( IS=4.35e-13 RS=0.0122 TT=1.638e-06)
M1 D G S S mosfet
D1 S D Diode
Cgs G S 1.20E-09
.ends
.subckt IRF840LC D G S
.model mosfet NMOS( LEVEL=17 VTO=4.179 RS=0.0277 KP=6.626 RD=0.6264 TC1RD=0.0118 RG=13.545 IS=1e-36 LIMIT(VDS)=(*, 500)
+ CGDMAX=1.38E-09 CGDMIN=2.00E-12 XG2CGD=0.3 XG1CGD=0.1 CBD=4.52E-10 VTCGD=0)
.model diode D( IS=3.06e-12 RS=0.0187 TT=1.836e-06)
M1 D G S S mosfet
D1 S D Diode
Cgs G S 1.08E-09
.ends
.subckt IRF842 D G S
.model mosfet NMOS( LEVEL=17 VTO=3.773 RS=0.03742 KP=11.192 RD=0.9482 TC1RD=0.0114 RG=5 IS=1e-36 LIMIT(VDS)=(*, 500)
+ CGDMAX=3.00E-09 CGDMIN=1.00E-11 XG2CGD=0.5 XG1CGD=0.1 CBD=9.87E-11 VTCGD=0)
.model diode D( IS=4.35e-13 RS=0.0122 TT=1.638e-06)
M1 D G S S mosfet
D1 S D Diode
Cgs G S 1.20E-09
.ends
.subckt IRF9510 D G S
.model mosfet PMOS( LEVEL=17 VTO=-3.326 RS=0.31236 KP=2.296 RD=0.5824 TC1RD=0.0145 RG=50.893 IS=1e-36 LIMIT(VDS)=(-100,*)
+ CGDMAX=2.50E-10 CGDMIN=4.00E-12 XG2CGD=0.2 XG1CGD=0.1 CBD=8.41E-11 VTCGD=1.5)
.model diode D( IS=2.86e-30 RS=0.1801 TT=1.427e-07)
M1 D G S S mosfet
D1 D S Diode
Cgs G S 1.84E-10
.ends
.subckt IRF9520S D G S
.model mosfet PMOS( LEVEL=17 VTO=-3.298 RS=0.16468 KP=5.891 RD=0.29 TC1RD=0.0135 RG=24.569 IS=1e-36 LIMIT(VDS)=(-100,*)
+ CGDMAX=7.20E-10 CGDMIN=6.00E-12 XG2CGD=0.25 XG1CGD=0.1 CBD=1.18E-10 VTCGD=2)
.model diode D( IS=4.25e-26 RS=0.1259 TT=7.723e-06)
M1 D G S S mosfet
D1 D S Diode
Cgs G S 3.40E-10
.ends
.subckt IRF9530S D G S
.model mosfet PMOS( LEVEL=17 VTO=-3.214 RS=0.09611 KP=7.673 RD=0.1247 TC1RD=0.0157 RG=17.932 IS=1e-36 LIMIT(VDS)=(-100,*)
+ CGDMAX=1.40E-09 CGDMIN=4.00E-11 XG2CGD=0.25 XG1CGD=0.1 CBD=2.20E-10 VTCGD=1)
.model diode D( IS=1.27e-25 RS=0.069 TT=1.506e-07)
M1 D G S S mosfet
D1 D S Diode
Cgs G S 7.55E-10
.ends
.subckt IRF9540 D G S
.model mosfet PMOS( LEVEL=17 VTO=-3.192 RS=0.05098 KP=13.966 RD=0.0985 TC1RD=0.0124 RG=21.486 IS=1e-36 LIMIT(VDS)=(-100,*)
+ CGDMAX=2.00E-09 CGDMIN=2.00E-11 XG2CGD=0.2 XG1CGD=0.1 CBD=5.13E-10 VTCGD=1)
.model diode D( IS=2.39e-27 RS=0.0447 TT=1.465e-07)
M1 D G S S mosfet
D1 D S Diode
Cgs G S 1.27E-09
.ends
.subckt IRF9610 D G S
.model mosfet PMOS( LEVEL=17 VTO=-3.667 RS=0.47274 KP=0.813 RD=1.733 TC1RD=0.011 RG=10 IS=1e-36 LIMIT(VDS)=(-200,*)
+ CGDMAX=4.05E-10 CGDMIN=3.00E-12 XG2CGD=0.25 XG1CGD=0.1 CBD=3.06E-11 VTCGD=0)
.model diode D( IS=6.17e-61 RS=0.267 TT=1.762e-06)
M1 D G S S mosfet
D1 D S Diode
Cgs G S 1.53E-10
.ends
.subckt IRF9620 D G S
.model mosfet PMOS( LEVEL=17 VTO=-3.366 RS=0.25417 KP=1.781 RD=0.8612 TC1RD=0.012 RG=17.177 IS=1e-36 LIMIT(VDS)=(-200,*)
+ CGDMAX=5.90E-10 CGDMIN=5.00E-112 XG2CGD=0.3 XG1CGD=0.1 CBD=5.91E-11 VTCGD=0)
.model diode D( IS=1.14e-48 RS=0.1795 TT=1.489e-06)
M1 D G S S mosfet
D1 D S Diode
Cgs G S 3.19E-10
.ends
.subckt IRF9630 D G S
.model mosfet PMOS( LEVEL=17 VTO=-3.652 RS=0.1098 KP=8.24 RD=0.5111 TC1RD=0.0132 RG=19.194 IS=1e-36 LIMIT(VDS)=(-200,*)
+ CGDMAX=1.00E-09 CGDMIN=1.00E-11 XG2CGD=0.3 XG1CGD=0.1 CBD=1.83E-10 VTCGD=1)
.model diode D( IS=1.63e-26 RS=0.1096 TT=4.477e-07)
M1 D G S S mosfet
D1 D S Diode
Cgs G S 6.55E-10
.ends
.subckt IRF9640 D G S
.model mosfet PMOS( LEVEL=17 VTO=-3.608 RS=0.0724 KP=8.645 RD=0.3095 TC1RD=0.0128 RG=13.171 IS=1e-36 LIMIT(VDS)=(-200,*)
+ CGDMAX=2.30E-09 CGDMIN=2.00E-11 XG2CGD=0.3 XG1CGD=0.1 CBD=3.34E-10 VTCGD=2)
.model diode D( IS=1.17e-28 RS=0.0634 TT=4.617e-07)
M1 D G S S mosfet
D1 D S Diode
Cgs G S 1.07E-09
.ends
.subckt IRF9Z14 D G S
.model mosfet PMOS( LEVEL=17 VTO=-3.797 RS=0.13755 KP=1.514 RD=0.256 TC1RD=0.0108 RG=62.982 IS=1e-36 LIMIT(VDS)=(-60,*)
+ CGDMAX=4.00E-10 CGDMIN=1.50E-11 XG2CGD=0.3 XG1CGD=0.1 CBD=1.47E-10 VTCGD=2)
.model diode D( IS=1.72e-30 RS=0.133 TT=1.072e-07)
M1 D G S S mosfet
D1 D S Diode
Cgs G S 2.47E-10
.ends
.subckt IRF9Z24 D G S
.model mosfet PMOS( LEVEL=17 VTO=-3.753 RS=0.09093 KP=5.175 RD=0.1021 TC1RD=0.0116 RG=40.66 IS=1e-36 LIMIT(VDS)=(-60,*)
+ CGDMAX=6.00E-10 CGDMIN=3.50E-11 XG2CGD=0.25 XG1CGD=0.1 CBD=3.26E-10 VTCGD=0)
.model diode D( IS=1.39e-27 RS=0.0826 TT=1.216e-07)
M1 D G S S mosfet
D1 D S Diode
Cgs G S 5.05E-10
.ends
.subckt IRF9Z34N D G S
.model mosfet PMOS( LEVEL=17 VTO=-3.692 RS=0.09436 KP=17.25 RD=-0.0236 TC1RD=-0.0186 RG=21.7 IS=1e-36 LIMIT(VDS)=(-55,*)
+ CGDMAX=1.58E-09 CGDMIN=7.00E-11 XG2CGD=0.32 XG1CGD=0.1 CBD=1.60E-10 VTCGD=1)
.model diode D( IS=1.74e-12 RS=0.0118 TT=5.810e-08)
M1 D G S S mosfet
D1 D S Diode
Cgs G S 4.87E-10
.ends
.subckt IRF9Z34S D G S
.model mosfet PMOS( LEVEL=17 VTO=-3.556 RS=0.07026 KP=8.417 RD=-0.0807 TC1RD=0.0006 RG=25.148 IS=1e-36 LIMIT(VDS)=(-55,*)
+ CGDMAX=1.60E-09 CGDMIN=6.00E-11 XG2CGD=0.25 XG1CGD=0.1 CBD=1.28E-10 VTCGD=3)
.model diode D( IS=1.72e-12 RS=0.0114 TT=5.810e-08)
M1 D G S S mosfet
D1 D S Diode
Cgs G S 4.79E-10
.ends
.subckt IRFBC30 D G S
.model mosfet NMOS( LEVEL=17 VTO=3.73 RS=0.0155 KP=3.188 RD=1.6945 TC1RD=0.0143 RG=0.969 IS=1e-36 LIMIT(VDS)=(*, 600)
+ CGDMAX=1.40E-09 CGDMIN=5.00E-12 XG2CGD=0.3 XG1CGD=0.1 CBD=1.47E-10 VTCGD=0)
.model diode D( IS=8.72e-13 RS=0.0269 TT=2.152e-06)
M1 D G S S mosfet
D1 S D Diode
Cgs G S 6.20E-10
.ends
.subckt IRFBC40LC D G S
.model mosfet NMOS( LEVEL=17 VTO=3.746 RS=0.01577 KP=4.96 RD=0.912 TC1RD=0.015 RG=14.6 IS=1e-36 LIMIT(VDS)=(*, 600)
+ CGDMAX=1.21E-09 CGDMIN=1.00E-12 XG2CGD=0.3 XG1CGD=0.1 CBD=4.79E-10 VTCGD=0)
.model diode D( IS=2.86e-12 RS=0.0189 TT=4.450e-08)
M1 D G S S mosfet
D1 S D Diode
Cgs G S 1.03E-09
.ends
.subckt IRFBG20 D G S
.model mosfet NMOS( LEVEL=17 VTO=4.452 RS=0.02285 KP=1.641 RD=8.6673 TC1RD=0.0137 RG=4.133 IS=1e-36 LIMIT(VDS)=(*, 1000)
+ CGDMAX=1.30E-09 CGDMIN=4.00E-12 XG2CGD=0.2 XG1CGD=0.1 CBD=8.08E-11 VTCGD=0)
.model diode D( IS=1.26e-12 RS=0.039 TT=6.918e-07)
M1 D G S S mosfet
D1 S D Diode
Cgs G S 4.59E-10
.ends
.subckt IRFD014 D G S
.model mosfet NMOS( LEVEL=17 VTO=3.443 RS=0.10264 KP=2.879 RD=0.0044 TC1RD=0.2231 RG=50 IS=1e-36 LIMIT(VDS)=(*, 60)
+ CGDMAX=5.00E-10 CGDMIN=1.50E-11 XG2CGD=0.3 XG1CGD=0.1 CBD=1.18E-10 VTCGD=0.6)
.model diode D( IS=5.81e-13 RS=0.0359 TT=7.929e-08)
M1 D G S S mosfet
D1 S D Diode
Cgs G S 2.84E-10
.ends
.subckt IRFD024 D G S
.model mosfet NMOS( LEVEL=17 VTO=3.675 RS=0.05177 KP=9.176 RD=0.011 TC1RD=0.0453 RG=30 IS=1e-36 LIMIT(VDS)=(*, 60)
+ CGDMAX=9.00E-10 CGDMIN=3.00E-11 XG2CGD=0.3 XG1CGD=0.1 CBD=2.67E-10 VTCGD=0)
.model diode D( IS=4.37e-13 RS=0.0183 TT=9.405e-08)
M1 D G S S mosfet
D1 S D Diode
Cgs G S 5.73E-10
.ends
.subckt IRFD210 D G S
.model mosfet NMOS( LEVEL=17 VTO=3.873 RS=0.3568 KP=1.263 RD=0.714 TC1RD=0.0207 RG=35 IS=1e-36 LIMIT(VDS)=(*, 200)
+ CGDMAX=3.00E-10 CGDMIN=3.00E-12 XG2CGD=0.3 XG1CGD=0.1 CBD=2.47E-11 VTCGD=0)
.model diode D( IS=1.26e-13 RS=0.0576 TT=4.444e-07)
M1 D G S S mosfet
D1 S D Diode
Cgs G S 1.28E-10
.ends
.subckt IRFD420 D G S
.model mosfet NMOS( LEVEL=17 VTO=3.762 RS=0.05188 KP=1.983 RD=2.8673 TC1RD=0.0126 RG=1.459 IS=1e-36 LIMIT(VDS)=(*, 500)
+ CGDMAX=1.20E-09 CGDMIN=1.00E-12 XG2CGD=0.5 XG1CGD=0.1 CBD=7.00E-11 VTCGD=1)
.model diode D( IS=5.47e-13 RS=0.0329 TT=1.785e-06)
M1 D G S S mosfet
D1 S D Diode
Cgs G S 3.22E-10
.ends
.subckt IRFD9014 D G S
.model mosfet PMOS( LEVEL=17 VTO=-3.767 RS=0.15745 KP=1.588 RD=0.2415 TC1RD=0.0116 RG=53.48 IS=1e-36 LIMIT(VDS)=(-60,*)
+ CGDMAX=7.00E-10 CGDMIN=1.50E-11 XG2CGD=0.5 XG1CGD=0.1 CBD=1.45E-10 VTCGD=3)
.model diode D( IS=1.79e-29 RS=0.3061 TT=1.072e-07)
M1 D G S S mosfet
D1 D S Diode
Cgs G S 2.42E-10
.ends
.subckt IRFD9024 D G S
.model mosfet PMOS( LEVEL=17 VTO=-3.786 RS=0.06869 KP=4.086 RD=0.1719 TC1RD=0.0084 RG=35.391 IS=1e-36 LIMIT(VDS)=(-60,*)
+ CGDMAX=1.50E-09 CGDMIN=3.00E-11 XG2CGD=0.5 XG1CGD=0.1 CBD=3.27E-10 VTCGD=3)
.model diode D( IS=4.60e-27 RS=0.1119 TT=1.216e-07)
M1 D G S S mosfet
D1 D S Diode
Cgs G S 5.03E-10
.ends
.subckt IRFD9110 D G S
.model mosfet PMOS( LEVEL=17 VTO=-3.529 RS=0.4381 KP=7.294 RD=0.7407 TC1RD=0.0142 RG=58.762 IS=1e-36 LIMIT(VDS)=(-100,*)
+ CGDMAX=5.00E-10 CGDMIN=8.00E-12 XG2CGD=0.5 XG1CGD=0.1 CBD=8.34E-11 VTCGD=3)
.model diode D( IS=1.86e-30 RS=0.1829 TT=1.427e-07)
M1 D G S S mosfet
D1 D S Diode
Cgs G S 1.81E-10
.ends
.subckt IRFD9210 D G S
.model mosfet PMOS( LEVEL=17 VTO=-3.748 RS=0.64 KP=2.159 RD=2.2859 TC1RD=0.0127 RG=4.668 IS=1e-36 LIMIT(VDS)=(-200,*)
+ CGDMAX=7.00E-10 CGDMIN=6.00E-12 XG2CGD=0.5 XG1CGD=0.1 CBD=4.28E-11 VTCGD=3)
.model diode D( IS=2.89e-36 RS=0.4319 TT=3.388e-07)
M1 D G S S mosfet
D1 D S Diode
Cgs G S 1.52E-10
.ends
.subckt IRFL4105 D G S
.model mosfet NMOS( LEVEL=17 VTO=3.653 RS=0.04772 KP=33.118 RD=-0.0165 TC1RD=-0.0122 RG=8.199 IS=1e-36 LIMIT(VDS)=(*, 55)
+ CGDMAX=1.70E-09 CGDMIN=6.50E-11 XG2CGD=0.5 XG1CGD=0.1 CBD=1.56E-10 VTCGD=1.5)
.model diode D( IS=2.84e-13 RS=0.0232 TT=8.105e-08)
M1 D G S S mosfet
D1 S D Diode
Cgs G S 5.69E-10
.ends
.subckt IRFL4310 D G S
.model mosfet NMOS( LEVEL=17 VTO=3.44 RS=0.16829 KP=18.238 RD=-0.0166 TC1RD=-0.0848 RG=8.389 IS=1e-36 LIMIT(VDS)=(*, 100)
+ CGDMAX=1.10E-09 CGDMIN=3.00E-11 XG2CGD=0.5 XG1CGD=0.1 CBD=3.73E-11 VTCGD=2.2)
.model diode D( IS=1.27e-13 RS=0.0395 TT=2.117e-07)
M1 D G S S mosfet
D1 S D Diode
Cgs G S 2.75E-10
.ends
.subckt IRFL9014 D G S
.model mosfet PMOS( LEVEL=17 VTO=-3.825 RS=0.11473 KP=1.305 RD=0.1612 TC1RD=0.0155 RG=57.153 IS=1e-36 LIMIT(VDS)=(-60,*)
+ CGDMAX=6.00E-10 CGDMIN=1.80E-11 XG2CGD=0.5 XG1CGD=0.1 CBD=1.49E-10 VTCGD=3)
.model diode D( IS=4.86e-31 RS=0.1429 TT=1.072e-07)
M1 D G S S mosfet
D1 D S Diode
Cgs G S 2.45E-10
.ends
.subckt IRFL9110 D G S