** Compilation of Philips models 25.9.99
** 17.6.01 Various corrections
** 3.8.06 BAS70-06W/PS corrected
** 11.10.06 BFM505, 520 and 540 corrected
*
** This line marks this library as a system library
** Models in this library will not appear in the
** "User Models" or "New Models" categories
.systemlib
**

* File: 015-100b.prm
*
.SUBCKT PSMN015-100B/PS 1 2 3
* 1=drain  2=gate  3=source
L1 1 11 4.5e-9
L2 2 22 7.5e-9
L3 3 33 7.5e-9
Cgs  6 33 3277E-12
Cgd1 6 4 6126E-12
Cgd2 11 4 305E-12
M1 5 6 33 33 MOST1
M2 4 6 5 33 MOST2
D1 33 11 Dbody
Rd 5 11 Rtemp 7.8e-3
Rg 22 6 26
.MODEL MOST1 NMOS (LEVEL=3 W=0.1 L=0.3e-6 Vto=3.94 Kp=1.18e-4 
+                          RS=0 RD=0 UO=650 VMAX=0 XJ=0.5E-6 KAPPA=10E-2
+                          ETA=2e-5 TPG=1 IS=0 LD=0 WD=0 CGSO=0 CGDO=0
+                          CGBO=0 NFS=2.2e12 DELTA=0.1)
.MODEL MOST2 NMOS (LEVEL=3 W=0.1 L=0.3e-6 Vto=-1.03 Kp=1.18e-4 
+                          RS=1000 RD=1000 UO=650 VMAX=0 XJ=0.5E-6 KAPPA=10E-2
+                          ETA=2e-5 TPG=1 IS=0 LD=0 WD=0 CGSO=0 CGDO=0
+                          CGBO=0 NFS=0 DELTA=0.1)
.MODEL Dbody D(Is=1e-14 N=0.8 Rs=2.4e-3 Ikf=1e3 Cjo=0 M=0.5 Vj=0.4
+                         Bv=100 Ibv=250e-6 Tt=80e-9)
.MODEL Rtemp RES(TC1=6.81e-3 TC2=2.86e-5)
.ENDS

*
* File: 015-100p.prm
*
.SUBCKT PSMN015-100P/PS 1 2 3
* 1=drain  2=gate  3=source
L1 1 11 4.5e-9
L2 2 22 7.5e-9
L3 3 33 7.5e-9
Cgs  6 33 3277E-12
Cgd1 6 4 6126E-12
Cgd2 11 4 305E-12
M1 5 6 33 33 MOST1
M2 4 6 5 33 MOST2
D1 33 11 Dbody
Rd 5 11 Rtemp 7.8e-3
Rg 22 6 26
.MODEL MOST1 NMOS (LEVEL=3 W=0.1 L=0.3e-6 Vto=3.94 Kp=1.18e-4 
+                          RS=0 RD=0 UO=650 VMAX=0 XJ=0.5E-6 KAPPA=10E-2
+                          ETA=2e-5 TPG=1 IS=0 LD=0 WD=0 CGSO=0 CGDO=0
+                          CGBO=0 NFS=2.2e12 DELTA=0.1)
.MODEL MOST2 NMOS (LEVEL=3 W=0.1 L=0.3e-6 Vto=-1.03 Kp=1.18e-4 
+                          RS=1000 RD=1000 UO=650 VMAX=0 XJ=0.5E-6 KAPPA=10E-2
+                          ETA=2e-5 TPG=1 IS=0 LD=0 WD=0 CGSO=0 CGDO=0
+                          CGBO=0 NFS=0 DELTA=0.1)
.MODEL Dbody D(Is=1e-14 N=0.8 Rs=2.4e-3 Ikf=1e3 Cjo=0 M=0.5 Vj=0.4
+                         Bv=100 Ibv=250e-6 Tt=80e-9)
.MODEL Rtemp RES(TC1=6.81e-3 TC2=2.86e-5)
.ENDS

*
* File: 130n03lt.prm
*
.SUBCKT PHP130N03LT/PS 1 2 3
* 1=drain  2=gate  3=source
L1 1 11 3e-9
L2 2 22 3e-9
L3 3 33 3e-9
Cgs  6 33 3500E-12
Cgd1 6 4 12500E-12
Cgd2 11 4 500E-12
M1 5 6 33 33 MOST1
M2 4 6 5 33 MOST2
D1 33 5 Dbody
Rd 5 11 Rtemp 2.8e-3
Rg 22 6 45
.MODEL MOST1 NMOS (LEVEL=3 W=0.1 L=0.3e-6 Vto=1.96 Kp=4.53e-4 
+                          RS=0 RD=0 UO=650 VMAX=0 XJ=0.5E-6 KAPPA=10E-2
+                          ETA=2e-5 TPG=1 IS=0 LD=0 WD=0 CGSO=0 CGDO=0
+                          CGBO=0 NFS=1e12 DELTA=0.1)
.MODEL MOST2 NMOS (LEVEL=3 W=0.1 L=0.3e-6 Vto=-0.92 Kp=4.53e-4 
+                          RS=500 RD=500 UO=650 VMAX=0 XJ=0.5E-6 KAPPA=10E-2
+                          ETA=2e-5 TPG=1 IS=0 LD=0 WD=0 CGSO=0 CGDO=0
+                          CGBO=0 NFS=0 DELTA=0.1)
.MODEL Dbody D(Is=1e-14 N=0.8 Rs=0 Ikf=1e3 Cjo=0 M=0.5 Vj=0.4
+                         Bv=30 Ibv=250e-6 Tt=100e-9)
.MODEL Rtemp RES(TC1=4.025e-3 TC2=1.26e-5)
.ENDS

*
* File: 1N4728A.SUB
*
.SUBCKT 1N4728A/PS 10 11
D1 10 11 1N47F
D2 12 10 RT3V3
V1 11 12 -2.35
.MODEL 1N47F D(IS=12.64n N=2.187 RS=.1927 IKF=53.06)
.MODEL RT3V3 D(N=7 RS=3.7)
.ENDS

*
* File: 1N4729A.SUB
*
.SUBCKT 1N4729A/PS 10 11
D1 10 11 1N47F
D2 12 10 RT3V6
V1 11 12 -1.24
.MODEL 1N47F D(IS=12.64n N=2.187 RS=.1927 IKF=53.06)
.MODEL RT3V6 D(N=6 RS=3.6)
.ENDS

*
* File: 1N4730A.SUB
*
.SUBCKT 1N4730A/PS 10 11
D1 10 11 1N47F
D2 12 10 RT3V9
V1 11 12 -0.14
.MODEL 1N47F D(IS=12.64n N=2.187 RS=.1927 IKF=53.06)
.MODEL RT3V9 D(N=5 RS=3.5)
.ENDS

*
* File: 1N4731A.SUB
*
.SUBCKT 1N4731A/PS 10 11
D1 10 11 1N47F
D2 12 10 RT4V3
V1 11 12 1.06
.MODEL 1N47F D(IS=12.64n N=2.187 RS=.1927 IKF=53.06)
.MODEL RT4V3 D(N=4 RS=3.4)
.ENDS

*
* File: 1N4732A.SUB
*
.SUBCKT 1N4732A/PS 10 11
D1 10 11 1N47F
D2 12 10 RT4V7
V1 11 12 2.25
.MODEL 1N47F D(IS=12.64n N=2.187 RS=.1927 IKF=53.06)
.MODEL RT4V7 D(N=3 RS=3.4)
.ENDS

*
* File: 1N4733A.SUB
*
.SUBCKT 1N4733A/PS 10 11
D1 10 11 1N47F
D2 12 10 RT5V1
V1 11 12 3.42
.MODEL 1N47F D(IS=12.64n N=2.187 RS=.1927 IKF=53.06)
.MODEL RT5V1 D(N=2 RS=3.4)
.ENDS

*
* File: 1N4734A.SUB
*
.SUBCKT 1N4734A/PS 10 11
D1 10 11 1N47F
D2 12 10 RT5V6
V1 11 12 4.69
.MODEL 1N47F D(IS=12.64n N=2.187 RS=.1927 IKF=53.06)
.MODEL RT5V6 D(N=1 RS=3.40)
.ENDS

*
* File: 1N4735A.SUB
*
.SUBCKT 1N4735A/PS 10 11
D1 10 11 1N47F
D2 12 10 RT6V2
V1 11 12 5.31
.MODEL 1N47F D(IS=12.64n N=2.187 RS=.1927 IKF=53.06)
.MODEL RT6V2 D(N=1 RS=3.40)
.ENDS

*
* File: 1N4736A.SUB
*
.SUBCKT 1N4736A/PS 10 11
D1 10 11 1N47F
D2 12 10 RT6V8
V1 11 12 5.93
.MODEL 1N47F D(IS=12.64n N=2.187 RS=.1927 IKF=53.06)
.MODEL RT6V8 D(N=1 RS=3.40)
.ENDS

*
* File: 1N4737A.SUB
*
.SUBCKT 1N4737A/PS 10 11
D1 10 11 1N47F
D2 12 10 RT7V5
V1 11 12 6.57
.MODEL 1N47F D(IS=12.64n N=2.187 RS=.1927 IKF=53.06)
.MODEL RT7V5 D(N=1 RS=5.25)
.ENDS

*
* File: 1N4738A.SUB
*
.SUBCKT 1N4738A/PS 10 11
D1 10 11 1N47F
D2 12 10 RT8V2
V1 11 12 7.25
.MODEL 1N47F D(IS=12.64n N=2.187 RS=.1927 IKF=53.06)
.MODEL RT8V2 D(N=1 RS=6.60)
.ENDS

*
* File: 1N4739A.SUB
*
.SUBCKT 1N4739A/PS 10 11
D1 10 11 1N47F
D2 12 10 RT9V1
V1 11 12 8.11
.MODEL 1N47F D(IS=12.64n N=2.187 RS=.1927 IKF=53.06)
.MODEL RT9V1 D(N=1 RS=8.76)
.ENDS

*
* File: 1N4740A.SUB
*
.SUBCKT 1N4740A/PS 10 11
D1 10 11 1N47F
D2 12 10 RT10V
V1 11 12 8.97
.MODEL 1N47F D(IS=12.64n N=2.187 RS=.1927 IKF=53.06)
.MODEL RT10V D(N=1 RS=11.6)
.ENDS

*
* File: 1N4741A.SUB
*
.SUBCKT 1N4741A/PS 10 11
D1 10 11 1N47F
D2 12 10 RT11V
V1 11 12 9.94
.MODEL 1N47F D(IS=12.64n N=2.187 RS=.1927 IKF=53.06)
.MODEL RT11V D(N=1 RS=14.1)
.ENDS

*
* File: 1N4742A.SUB
*
.SUBCKT 1N4742A/PS 10 11
D1 10 11 1N47F
D2 12 10 RT12V
V1 11 12 10.9
.MODEL 1N47F D(IS=12.64n N=2.187 RS=.1927 IKF=53.06)
.MODEL RT12V D(N=1 RS=18.0)
.ENDS

*
* File: 1N4743A.SUB
*
.SUBCKT 1N4743A/PS 10 11
D1 10 11 1N47F
D2 12 10 RT13V
V1 11 12 11.8
.MODEL 1N47F D(IS=12.64n N=2.187 RS=.1927 IKF=53.06)
.MODEL RT13V D(N=1 RS=22.1)
.ENDS

*
* File: 1N4744A.SUB
*
.SUBCKT 1N4744A/PS 10 11
D1 10 11 1N47F
D2 12 10 RT15V
V1 11 12 13.8
.MODEL 1N47F D(IS=12.64n N=2.187 RS=.1927 IKF=53.06)
.MODEL RT15V D(N=1 RS=29.5)
.ENDS

*
* File: 1N4745A.SUB
*
.SUBCKT 1N4745A/PS 10 11
D1 10 11 1N47F
D2 12 10 RT16V
V1 11 12 14.7
.MODEL 1N47F D(IS=12.64n N=2.187 RS=.1927 IKF=53.06)
.MODEL RT16V D(N=1 RS=36.5)
.ENDS

*
* File: 1N4746A.SUB
*
.SUBCKT 1N4746A/PS 10 11
D1 10 11 1N47F
D2 12 10 RT18V
V1 11 12 16.6
.MODEL 1N47F D(IS=12.64n N=2.187 RS=.1927 IKF=53.06)
.MODEL RT18V D(N=1 RS=45.5)
.ENDS

*
* File: 1N4747A.SUB
*
.SUBCKT 1N4747A/PS 10 11
D1 10 11 1N47F
D2 12 10 RT20V
V1 11 12 18.6
.MODEL 1N47F D(IS=12.64n N=2.187 RS=.1927 IKF=53.06)
.MODEL RT20V D(N=1 RS=57.2)
.ENDS

*
* File: 1N4748A.SUB
*
.SUBCKT 1N4748A/PS 10 11
D1 10 11 1N47F
D2 12 10 RT22V
V1 11 12 20.4
.MODEL 1N47F D(IS=12.64n N=2.187 RS=.1927 IKF=53.06)
.MODEL RT22V D(N=1 RS=74.5)
.ENDS

*
* File: 1N4749A.SUB
*
.SUBCKT 1N4749A/PS 10 11
D1 10 11 1N47F
D2 12 10 RT24V
V1 11 12 22.3
.MODEL 1N47F D(IS=12.64n N=2.187 RS=.1927 IKF=53.06)
.MODEL RT24V D(N=1 RS=89.5)
.ENDS

*
* File: 1N5210V.SUB
*
.SUBCKT 1N5210V/PS 10 11
D1 10 11 1N52xxF
D2 12 10 RT10V
V1 11 12 8.78
.MODEL 1N52xxF D(IS=12.64n N=2.187 RS=.1927 IKF=53.06)
.MODEL RT10V D(N=1 RS=24.3)
.ENDS

*
* File: 1N5211V.SUB
*
.SUBCKT 1N5211V/PS 10 11
D1 10 11 1N52xxF
D2 12 10 RT11V
V1 11 12 9.65
.MODEL 1N52xxF D(IS=12.64n N=2.187 RS=.1927 IKF=53.06)
.MODEL RT11V D(N=1 RS=30.9)
.ENDS

*
* File: 1N5212V.SUB
*
.SUBCKT 1N5212V/PS 10 11
D1 10 11 1N52xxF
D2 12 10 RT12V
V1 11 12 10.5
.MODEL 1N52xxF D(IS=12.64n N=2.187 RS=.1927 IKF=53.06)
.MODEL RT12V D(N=1 RS=38.3)
.ENDS

*
* File: 1N5213V.SUB
*
.SUBCKT 1N5213V/PS 10 11
D1 10 11 1N52xxF
D2 12 10 RT13V
V1 11 12 11.8
.MODEL 1N52xxF D(IS=12.64n N=2.187 RS=.1927 IKF=53.06)
.MODEL RT13V D(N=1 RS=46.4)
.ENDS

*
* File: 1N5214V.SUB
*
.SUBCKT 1N5214V/PS 10 11
D1 10 11 1N52xxF
D2 12 10 RT14V
V1 11 12 12.8
.MODEL 1N52xxF D(IS=12.64n N=2.187 RS=.1927 IKF=53.06)
.MODEL RT14V D(N=1 RS=55.7)
.ENDS

*
* File: 1N5215V.SUB
*
.SUBCKT 1N5215V/PS 10 11
D1 10 11 1N52xxF
D2 12 10 RT15V
V1 11 12 13.7
.MODEL 1N52xxF D(IS=12.64n N=2.187 RS=.1927 IKF=53.06)
.MODEL RT15V D(N=1 RS=65.0)
.ENDS

*
* File: 1N5216V.SUB
*
.SUBCKT 1N5216V/PS 10 11
D1 10 11 1N52xxF
D2 12 10 RT16V
V1 11 12 14.7
.MODEL 1N52xxF D(IS=12.64n N=2.187 RS=.1927 IKF=53.06)
.MODEL RT16V D(N=1 RS=75.4)
.ENDS

*
* File: 1N5217V.SUB
*
.SUBCKT 1N5217V/PS 10 11
D1 10 11 1N52xxF
D2 12 10 RT17V
V1 11 12 15.7
.MODEL 1N52xxF D(IS=12.64n N=2.187 RS=.1927 IKF=53.06)
.MODEL RT17V D(N=1 RS=87.0)
.ENDS

*
* File: 1N5218V.SUB
*
.SUBCKT 1N5218V/PS 10 11
D1 10 11 1N52xxF
D2 12 10 RT18V
V1 11 12 16.6
.MODEL 1N52xxF D(IS=12.64n N=2.187 RS=.1927 IKF=53.06)
.MODEL RT18V D(N=1 RS=98.5)
.ENDS

*
* File: 1N5219V.SUB
*
.SUBCKT 1N5219V/PS 10 11
D1 10 11 1N52xxF
D2 12 10 RT19V
V1 11 12 17.6
.MODEL 1N52xxF D(IS=12.64n N=2.187 RS=.1927 IKF=53.06)
.MODEL RT19V D(N=1 RS=112)
.ENDS

*
* File: 1N5220V.SUB
*
.SUBCKT 1N5220V/PS 10 11
D1 10 11 1N52xxF
D2 12 10 RT20V
V1 11 12 18.5
.MODEL 1N52xxF D(IS=12.64n N=2.187 RS=.1927 IKF=53.06)
.MODEL RT20V D(N=1 RS=125)
.ENDS

*
* File: 1N5222V.SUB
*
.SUBCKT 1N5222V/PS 10 11
D1 10 11 1N52xxF
D2 12 10 RT22V
V1 11 12 20.4
.MODEL 1N52xxF D(IS=12.64n N=2.187 RS=.1927 IKF=53.06)
.MODEL RT22V D(N=1 RS=154)
.ENDS

*
* File: 1N5224V.SUB
*
.SUBCKT 1N5224V/PS 10 11
D1 10 11 1N52xxF
D2 12 10 RT24V
V1 11 12 22.3
.MODEL 1N52xxF D(IS=12.64n N=2.187 RS=.1927 IKF=53.06)
.MODEL RT24V D(N=1 RS=186)
.ENDS

*
* File: 1N5225V.SUB
*
.SUBCKT 1N5225V/PS 10 11
D1 10 11 1N52xxF
D2 12 10 RT25V
V1 11 12 23.3
.MODEL 1N52xxF D(IS=12.64n N=2.187 RS=.1927 IKF=53.06)
.MODEL RT25V D(N=1 RS=204)
.ENDS

*
* File: 1N5227V.SUB
*
.SUBCKT 1N5227V/PS 10 11
D1 10 11 1N52xxF
D2 12 10 RT27V
V1 11 12 25.2
.MODEL 1N52xxF D(IS=12.64n N=2.187 RS=.1927 IKF=53.06)
.MODEL RT27V D(N=1 RS=240)
.ENDS

*
* File: 1N5228V.SUB
*
.SUBCKT 1N5228V/PS 10 11
D1 10 11 1N52xxF
D2 12 10 RT28V
V1 11 12 26.1
.MODEL 1N52xxF D(IS=12.64n N=2.187 RS=.1927 IKF=53.06)
.MODEL RT28V D(N=1 RS=261)
.ENDS

*
* File: 1N5230V.SUB
*
.SUBCKT 1N5230V/PS 10 11
D1 10 11 1N52xxF
D2 12 10 RT30V
V1 11 12 28.0
.MODEL 1N52xxF D(IS=12.64n N=2.187 RS=.1927 IKF=53.06)
.MODEL RT30V D(N=1 RS=303)
.ENDS

*
* File: 1N5233V.SUB
*
.SUBCKT 1N5233V/PS 10 11
D1 10 11 1N52xxF
D2 12 10 RT33V
V1 11 12 30.9
.MODEL 1N52xxF D(IS=12.64n N=2.187 RS=.1927 IKF=53.06)
.MODEL RT33V D(N=1 RS=372)
.ENDS

*
* File: 1N5236V.SUB
*
.SUBCKT 1N5236V/PS 10 11
D1 10 11 1N52xxF
D2 12 10 RT36V
V1 11 12 33.8
.MODEL 1N52xxF D(IS=12.64n N=2.187 RS=.1927 IKF=53.06)
.MODEL RT36V D(N=1 RS=451)
.ENDS

*
* File: 1N5239V.SUB
*
.SUBCKT 1N5239V/PS 10 11
D1 10 11 1N52xxF
D2 12 10 RT39V
V1 11 12 36.6
.MODEL 1N52xxF D(IS=12.64n N=2.187 RS=.1927 IKF=53.06)
.MODEL RT39V D(N=1 RS=539)
.ENDS

*
* File: 1N523V0.SUB
*
.SUBCKT 1N523V0/PS 10 11
D1 10 11 1N52xxF
D2 12 10 RT3V0
V1 11 12 -2.94
.MODEL 1N52xxF D(IS=12.64n N=2.187 RS=.1927 IKF=53.06)
.MODEL RT3V0 D(N=8 RS=3.8)
.ENDS

*
* File: 1N523V3.SUB
*
.SUBCKT 1N523V3/PS 10 11
D1 10 11 1N52xxF
D2 12 10 RT3V3
V1 11 12 -1.90
.MODEL 1N52xxF D(IS=12.64n N=2.187 RS=.1927 IKF=53.06)
.MODEL RT3V3 D(N=7 RS=3.7)
.ENDS

*
* File: 1N523V6.SUB
*
.SUBCKT 1N523V6/PS 10 11
D1 10 11 1N52xxF
D2 12 10 RT3V6
V1 11 12 -0.87
.MODEL 1N52xxF D(IS=12.64n N=2.187 RS=.1927 IKF=53.06)
.MODEL RT3V6 D(N=6 RS=3.6)
.ENDS

*
* File: 1N523V9.SUB
*
.SUBCKT 1N523V9/PS 10 11
D1 10 11 1N52xxF
D2 12 10 RT3V9
V1 11 12 0.17
.MODEL 1N52xxF D(IS=12.64n N=2.187 RS=.1927 IKF=53.06)
.MODEL RT3V9 D(N=5 RS=3.5)
.ENDS

*
* File: 1N5243V.SUB
*
.SUBCKT 1N5243V/PS 10 11
D1 10 11 1N52xxF
D2 12 10 RT43V
V1 11 12 40.3
.MODEL 1N52xxF D(IS=12.64n N=2.187 RS=.1927 IKF=53.06)
.MODEL RT43V D(N=1 RS=673)
.ENDS

*
* File: 1N5247V.SUB
*
.SUBCKT 1N5247V/PS 10 11
D1 10 11 1N52xxF
D2 12 10 RT47V
V1 11 12 44.1
.MODEL 1N52xxF D(IS=12.64n N=2.187 RS=.1927 IKF=53.06)
.MODEL RT47V D(N=1 RS=823)
.ENDS

*
* File: 1N524V3.SUB
*
.SUBCKT 1N524V3/PS 10 11
D1 10 11 1N52xxF
D2 12 10 RT4V3
V1 11 12 1.30
.MODEL 1N52xxF D(IS=12.64n N=2.187 RS=.1927 IKF=53.06)
.MODEL RT4V3 D(N=4 RS=3.4)
.ENDS

*
* File: 1N524V7.SUB
*
.SUBCKT 1N524V7/PS 10 11
D1 10 11 1N52xxF
D2 12 10 RT4V7
V1 11 12 2.43
.MODEL 1N52xxF D(IS=12.64n N=2.187 RS=.1927 IKF=53.06)
.MODEL RT4V7 D(N=3 RS=3.4)
.ENDS

*
* File: 1N5251V.SUB
*
.SUBCKT 1N5251V/PS 10 11
D1 10 11 1N52xxF
D2 12 10 RT51V
V1 11 12 47.9
.MODEL 1N52xxF D(IS=12.64n N=2.187 RS=.1927 IKF=53.06)
.MODEL RT51V D(N=1 RS=988)
.ENDS

*
* File: 1N5256V.SUB
*
.SUBCKT 1N5256V/PS 10 11
D1 10 11 1N52xxF
D2 12 10 RT56V
V1 11 12 52.7
.MODEL 1N52xxF D(IS=12.64n N=2.187 RS=.1927 IKF=53.06)
.MODEL RT56V D(N=1 RS=1213)
.ENDS

*
* File: 1N525V1.SUB
*
.SUBCKT 1N525V1/PS 10 11
D1 10 11 1N52xxF
D2 12 10 RT5V1
V1 11 12 3.57
.MODEL 1N52xxF D(IS=12.64n N=2.187 RS=.1927 IKF=53.06)
.MODEL RT5V1 D(N=2 RS=3.4)
.ENDS

*
* File: 1N525V6.SUB
*
.SUBCKT 1N525V6/PS 10 11
D1 10 11 1N52xxF
D2 12 10 RT5V6
V1 11 12 4.78
.MODEL 1N52xxF D(IS=12.64n N=2.187 RS=.1927 IKF=53.06)
.MODEL RT5V6 D(N=1 RS=4.41)
.ENDS

*
* File: 1N5260V.SUB
*
.SUBCKT 1N5260V/PS 10 11
D1 10 11 1N52xxF
D2 12 10 RT60V
V1 11 12 56.4
.MODEL 1N52xxF D(IS=12.64n N=2.187 RS=.1927 IKF=53.06)
.MODEL RT60V D(N=1 RS=1416)
.ENDS

*
* File: 1N5262V.SUB
*
.SUBCKT 1N5262V/PS 10 11
D1 10 11 1N52xxF
D2 12 10 RT62V
V1 11 12 58.3
.MODEL 1N52xxF D(IS=12.64n N=2.187 RS=.1927 IKF=53.06)
.MODEL RT62V D(N=1 RS=1517)
.ENDS

*
* File: 1N5268V.SUB
*
.SUBCKT 1N5268V/PS 10 11
D1 10 11 1N52xxF
D2 12 10 RT68V
V1 11 12 64.0
.MODEL 1N52xxF D(IS=12.64n N=2.187 RS=.1927 IKF=53.06)
.MODEL RT68V D(N=1 RS=1853)
.ENDS

*
* File: 1N526V0.SUB
*
.SUBCKT 1N526V0/PS 10 11
D1 10 11 1N52xxF
D2 12 10 RT6V0
V1 11 12 5.17
.MODEL 1N52xxF D(IS=12.64n N=2.187 RS=.1927 IKF=53.06)
.MODEL RT6V0 D(N=1 RS=5.08)
.ENDS

*
* File: 1N526V2.SUB
*
.SUBCKT 1N526V2/PS 10 11
D1 10 11 1N52xxF
D2 12 10 RT6V2
V1 11 12 5.36
.MODEL 1N52xxF D(IS=12.64n N=2.187 RS=.1927 IKF=53.06)
.MODEL RT6V2 D(N=1 RS=5.42)
.ENDS

*
* File: 1N526V8.SUB
*
.SUBCKT 1N526V8/PS 10 11
D1 10 11 1N52xxF
D2 12 10 RT6V8
V1 11 12 5.91
.MODEL 1N52xxF D(IS=12.64n N=2.187 RS=.1927 IKF=53.06)
.MODEL RT6V8 D(N=1 RS=7.75)
.ENDS

*
* File: 1N5275V.SUB
*
.SUBCKT 1N5275V/PS 10 11
D1 10 11 1N52xxF
D2 12 10 RT75V
V1 11 12 70.5
.MODEL 1N52xxF D(IS=12.64n N=2.187 RS=.1927 IKF=53.06)
.MODEL RT75V D(N=1 RS=2281)
.ENDS

*
* File: 1N527V5.SUB
*
.SUBCKT 1N527V5/PS 10 11
D1 10 11 1N52xxF
D2 12 10 RT7V5
V1 11 12 6.54
.MODEL 1N52xxF D(IS=12.64n N=2.187 RS=.1927 IKF=53.06)
.MODEL RT7V5 D(N=1 RS=11.4)
.ENDS

*
* File: 1N528V2.SUB
*
.SUBCKT 1N528V2/PS 10 11
D1 10 11 1N52xxF
D2 12 10 RT8V2
V1 11 12 7.18
.MODEL 1N52xxF D(IS=12.64n N=2.187 RS=.1927 IKF=53.06)
.MODEL RT8V2 D(N=1 RS=14.3)
.ENDS

*
* File: 1N528V7.SUB
*
.SUBCKT 1N528V7/PS 10 11
D1 10 11 1N52xxF
D2 12 10 RT8V7
V1 11 12 7.63
.MODEL 1N52xxF D(IS=12.64n N=2.187 RS=.1927 IKF=53.06)
.MODEL RT8V7 D(N=1 RS=16.9)
.ENDS

*
* File: 1N529V1.SUB
*
.SUBCKT 1N529V1/PS 10 11
D1 10 11 1N52xxF
D2 12 10 RT9V1
V1 11 12 7.99
.MODEL 1N52xxF D(IS=12.64n N=2.187 RS=.1927 IKF=53.06)
.MODEL RT9V1 D(N=1 RS=19.0)
.ENDS

*
* File: 2N4091.PRM
*
*PHILIPS SEMICONDUCTORS        Version: 1.0
*Filename: 2N4091.prm        Date: Oct 1992
*
.MODEL N4091/PS NJF
+             VTO = -8.0337E+000
+            BETA = 1.56450E-003
+          LAMBDA = 1.00000E-002
+              RD = 8.25115E-001
+              RS = 8.25115E-001
+              IS = 6.54620E-016
+            CGS  = 8.75000E-012
+            CGD  = 1.37500E-011
+              PB = 7.72344E-001
+              FC = 5.00000E-001
*Parameter with default value: FC

*
* File: 2N4092.PRM
*
*PHILIPS SEMICONDUCTORS        Version: 1.0
*Filename: 2N4092.prm        Date: Oct 1992
*
.MODEL N4092/PS NJF
+             VTO = -2.2088E+000
+            BETA = 4.22567E-003
+          LAMBDA = 6.40354E-002
+              RD = 1.14866E+000
+              RS = 1.14866E+000
+              IS = 4.90805E-016
+            CGS  = 8.25000E-012
+            CGD  = 8.25000E-012
+              PB = 7.55484E-001
+              FC = 5.00000E-001
*Parameter with default value: FC

*
* File: 2N4093.PRM
*
*PHILIPS SEMICONDUCTORS        Version: 1.0
*Filename: 2N4093.PRM        Date: Oct 1992
*
.MODEL N4093/PS NJF
+             VTO = -1.3550E+000
+            BETA = 6.94457E-003
+          LAMBDA = 3.97876E-002
+              RD = 3.51442E+000
+              RS = 3.51442E+000
+              IS = 6.91657E-016
+            CGS  = 8.00000E-012
+            CGD  = 8.30000E-012
+              PB = 7.27722E-001
+              FC = 5.00000E-001
*Parameter with default value: FC

*
* File: 2N4391.PRM
*
*PHILIPS SEMICONDUCTORS        Version: 1.0
*Filename: 2N4391.prm        Date: Oct 1992
*
.MODEL N4391/PS NJF
+             VTO = -8.0337E+000
+            BETA = 1.56450E-003
+          LAMBDA = 1.00000E-002
+              RD = 8.25115E-001
+              RS = 8.25115E-001
+              IS = 6.54620E-016
+            CGS  = 8.75000E-012
+            CGD  = 1.37500E-011
+              PB = 7.72344E-001
+              FC = 5.00000E-001
*Parameter with default value: FC

*
* File: 2N4392.PRM
*
*PHILIPS SEMICONDUCTORS        Version: 1.0
*Filename: 2N4392.prm        Date: Oct 1992
*
.MODEL N4392/PS NJF
+             VTO = -2.2088E+000
+            BETA = 4.22567E-003
+          LAMBDA = 6.40354E-002
+              RD = 1.14866E+000
+              RS = 1.14866E+000
+              IS = 4.90805E-016
+            CGS  = 8.25000E-012
+            CGD  = 8.25000E-012
+              PB = 7.55484E-001
+              FC = 5.00000E-001
*Parameter with default value: FC

*
* File: 2N4393.PRM
*
*PHILIPS SEMICONDUCTORS        Version: 1.0
*Filename: 2N4393.PRM        Date: Oct 1992
*
.MODEL N4393/PS NJF
+             VTO = -1.3550E+000
+            BETA = 6.94457E-003
+          LAMBDA = 3.97876E-002
+              RD = 3.51442E+000
+              RS = 3.51442E+000
+              IS = 6.91657E-016
+            CGS  = 8.00000E-012
+            CGD  = 8.30000E-012
+              PB = 7.27722E-001
+              FC = 5.00000E-001
*Parameter with default value: FC

*
* File: 2N4416.PRM
*
*PHILIPS SEMICONDUCTORS        Version: 1.0
*Filename: 2N4416.PRM        Date: sep 1992
*
.MODEL N4416/PS NJF
+             VTO = -3.5534E+000
+            BETA = 7.92667E-004
+          LAMBDA = 1.84696E-002
+              RD = 7.67130E+000
+              RS = 7.67130E+000
+              IS = 3.33412E-016
+            CGS  = 2.92000E-012
+            CGD  = 2.26140E-012
+              PB = 1.09077E+000
+              FC = 5.00000E-001
*Parameter with default value: FC

*
* File: 2N4416A.PRM
*
*PHILIPS SEMICONDUCTORS        Version: 1.0
*Filename: 2N4416A.PRM       Date: sep 1992
*
.MODEL N4416A/PS NJF
+             VTO = -3.5534E+000
+            BETA = 7.92667E-004
+          LAMBDA = 1.84696E-002
+              RD = 7.67130E+000
+              RS = 7.67130E+000
+              IS = 3.33412E-016
+            CGS  = 2.92000E-012
+            CGD  = 2.26140E-012
+              PB = 1.09077E+000
+              FC = 5.00000E-001
*Parameter with default value: FC

*
* File: 2N4856.PRM
*
*PHILIPS SEMICONDUCTORS        Version: 1.0
*Filename: 2N4856.PRM        Date: Oct 1992
*
.MODEL N4856/PS NJF
+             VTO = -5.3298E+000
+            BETA = 2.86527E-003
+          LAMBDA = 6.19323E-002
+              RD = 1.62278E+000
+              RS = 1.62278E+000
+              IS = 1.18582E-015
+            CGS  = 1.05000E-011
+            CGD  = 1.30000E-011
+              PB = 7.98217E-001
+              FC = 5.00000E-001
*Parameter with default value: FC
*
* File: 2N4857.PRM
*
*PHILIPS SEMICONDUCTORS        Version: 1.0
*Filename: 2N4857.PRM        Date: Oct 1992
*
.MODEL N4857/PS NJF
+             VTO = -3.1621E+000
+            BETA = 5.01519E-003
+          LAMBDA = 2.40112E-002
+              RD = 1.48485E+000
+              RS = 1.48485E+000
+              IS = 9.11151E-016
+            CGS  = 1.05000E-011
+            CGD  = 1.40000E-011
+              PB = 5.68050E-001
+              FC = 5.00000E-001
*Parameter with default value: FC

*
* File: 2N4858.PRM
*
*PHILIPS SEMICONDUCTORS        Version: 1.0
*Filename: 2N4858.PRM        Date: Oct 1992
*
.MODEL N4858/PS NJF
+             VTO = -2.4397E+000
+            BETA = 6.09357E-003
+          LAMBDA = 5.26244E-002
+              RD = 1.26608E+000
+              RS = 1.26608E+000
+              IS = 9.89866E-016
+            CGS  = 1.05000E-011
+            CGD  = 1.10000E-011
+              PB = 6.06848E-001
+              FC = 5.00000E-001
*Parameter with default value: FC
*
* File: 2N4859.PRM
*
*PHILIPS SEMICONDUCTORS        Version: 1.0
*Filename: 2N4859.PRM        Date: Oct 1992
*
.MODEL N4859/PS NJF
+             VTO = -5.3298E+000
+            BETA = 2.86527E-003
+          LAMBDA = 6.19323E-002
+              RD = 1.62278E+000
+              RS = 1.62278E+000
+              IS = 1.18582E-015
+            CGS  = 1.05000E-011
+            CGD  = 1.30000E-011
+              PB = 7.98217E-001
+              FC = 5.00000E-001
*Parameter with default value: FC
*
* File: 2N4860.PRM
*
*PHILIPS SEMICONDUCTORS        Version: 1.0
*Filename: 2N4860.PRM        Date: Oct 1992
*
.MODEL N4860/PS NJF
+             VTO = -3.1621E+000
+            BETA = 5.01519E-003
+          LAMBDA = 2.40112E-002
+              RD = 1.48485E+000
+              RS = 1.48485E+000
+              IS = 9.11151E-016
+            CGS  = 1.05000E-011
+            CGD  = 1.40000E-011
+              PB = 5.68050E-001
+              FC = 5.00000E-001
*Parameter with default value: FC

*
* File: 2N4861.PRM
*
*PHILIPS SEMICONDUCTORS        Version: 1.0
*Filename: 2N4861.PRM        Date: Oct 1992
*
.MODEL N4861/PS NJF
+             VTO = -2.4397E+000
+            BETA = 6.09357E-003
+          LAMBDA = 5.26244E-002
+              RD = 1.26608E+000
+              RS = 1.26608E+000
+              IS = 9.89866E-016
+            CGS  = 1.05000E-011
+            CGD  = 1.10000E-011
+              PB = 6.06848E-001
+              FC = 5.00000E-001
*Parameter with default value: FC
*
* File: 2N5484.PRM
*
*PHILIPS SEMICONDUCTORS        Version: 1.0
*Filename: 2N5484.PRM        Date: feb 1993
*
.MODEL 2N5484/PS NJF
+             VTO = -1.2796E+000
+            BETA = 1.71347E-003
+          LAMBDA = 1.93292E-002
+              RD = 4.41873E+000
+              RS = 4.41873E+000
+              IS = 1.25479E-016
+            CGSO = 2.25000E-012
+            CGDO = 2.34000E-012
+              PB = 1.14141E+000
+              FC = 5.00000E-001
*Parameter with default value: FC

*
* File: 2N5485.PRM
*
*PHILIPS SEMICONDUCTORS         Version: 1.0
*Filename: 2N5485.PRM         Date: feb 1993
*
.MODEL 2N5485/PS NJF
+             VTO = -2.2776E+000
+            BETA = 1.16245E-003
+          LAMBDA = 1.74427E-002
+              RD = 5.28684E+000
+              RS = 5.28684E+000
+              IS = 1.71027E-016
+            CGSO = 2.68000E-012
+            CGDO = 2.28000E-012
+              PB = 1.02676E+000
+              FC = 5.00000E-001
*Parameter with default value: FC

*
* File: 2N5486.PRM
*
*PHILIPS SEMICONDUCTORS        Version: 1.0
*Filename: 2N5486.PRM        Date: feb 1993
*
.MODEL 2N5486/PS NJF
+             VTO = -3.8470E+000
+            BETA = 8.32666E-004
+          LAMBDA = 1.91513E-002
+              RD = 5.71667E+000
+              RS = 5.71667E+000
+              IS = 2.03601E-016
+            CGSO = 2.50000E-012
+            CGDO = 2.38000E-012
+              PB = 1.48032E+000
+              FC = 5.00000E-001
*Parameter with default value: FC

*
* File: 2n7000.prm
*
.SUBCKT 2N7000/PS 1 2 3
* 1=drain  2=gate  3=source
Cgs  6 3 12.3e-12
Cgd1 6 4 27.4e-12
Cgd2 1 4 6e-12
M1 5 6 3 3 MOST1
M2 4 6 5 3 MOST2
D1 3 1 Dbody
Rd 5 1 Rtemp 2.3
Rg 2 6 15
.MODEL MOST1 NMOS (LEVEL=3 W=0.1 L=0.3e-6 Vto=2.014 Kp=3.09e-7
+                          RS=0 RD=0 UO=650 VMAX=0 XJ=0.5E-6 KAPPA=10E-2
+                          ETA=3e-6 TPG=1 IS=0 LD=0 WD=0 CGSO=0 CGDO=0
+                          CGBO=0 NFS=4.9e12 DELTA=0.1)
.MODEL MOST2 NMOS (LEVEL=3 W=0.1 L=0.3e-6 Vto=-5.69 Kp=0.315e-5 
+                          RS=1000 RD=1000 UO=650 VMAX=0 XJ=0.5E-6 KAPPA=10E-2
+                          ETA=3e-6 TPG=1 IS=0 LD=0 WD=0 CGSO=0 CGDO=0
+                          CGBO=0 NFS=0 DELTA=0.1)
.MODEL Dbody D(Is=1e-14 N=0.88 Rs=0.7 Ikf=1e3 Cjo=0 M=0.5 Vj=0.4 
+                          Bv=60 Ibv=10e-6 Tt=50e-9)
.MODEL Rtemp RES(TC1=5.61e-3 TC2=2.23e-5)
.ENDS

*
* File: 2n7002.prm
*
.SUBCKT 2N7002/PS 1 2 3
* 1=drain  2=gate  3=source
Cgs  6 3 12.3e-12
Cgd1 6 4 27.4e-12
Cgd2 1 4 6e-12
M1 5 6 3 3 MOST1
M2 4 6 5 3 MOST2
D1 3 1 Dbody
Rd 5 1 Rtemp 2.3
Rg 2 6 15
.MODEL MOST1 NMOS (LEVEL=3 W=0.1 L=0.3e-6 Vto=2.014 Kp=3.09e-7
+                          RS=0 RD=0 UO=650 VMAX=0 XJ=0.5E-6 KAPPA=10E-2
+                          ETA=3e-6 TPG=1 IS=0 LD=0 WD=0 CGSO=0 CGDO=0
+                          CGBO=0 NFS=4.9e12 DELTA=0.1)
.MODEL MOST2 NMOS (LEVEL=3 W=0.1 L=0.3e-6 Vto=-5.69 Kp=0.315e-5 
+                          RS=1000 RD=1000 UO=650 VMAX=0 XJ=0.5E-6 KAPPA=10E-2
+                          ETA=3e-6 TPG=1 IS=0 LD=0 WD=0 CGSO=0 CGDO=0
+                          CGBO=0 NFS=0 DELTA=0.1)
.MODEL Dbody D(Is=1e-14 N=0.88 Rs=0.7 Ikf=1e3 Cjo=0 M=0.5 Vj=0.4 
+                          Bv=60 Ibv=10e-6 Tt=50e-9)
.MODEL Rtemp RES(TC1=5.61e-3 TC2=2.23e-5)
.ENDS

*
* File: 2PA1576Q.PRM
*
*
.MODEL Q2PA1576Q/PS PNP(
+     IS=1.604E-14
+     NF=0.9982
+     ISE=3.351E-15
+     NE=1.397
+     BF=212.1
+     IKF=0.08039
+     VAF=37.2
+     NR=1.006
+     ISC=1.842E-14
+     NC=1.2  
+     BR=7.351
+     IKR=0.047
+     VAR=11.42
+     RB=1
+     IRB=1E-06
+     RBM=1  
+     RE=0.692
+     RC=0.6886
+     XTB=0
+     EG=1.11
+     XTI=3
+     CJE=1.307E-11
+     VJE=0.7282
+     MJE=0.396
+     TF=6.839E-10
+     XTF=9.882
+     VTF=5.669  
+     ITF=0.2739
+     PTF=0
+     CJC=6.848E-12
+     VJC=0.364
+     MJC=0.3835  
+     XCJC=0.6288
+     TR=1E-32
+     CJS=0
+     VJS=0.75
+     MJS=0.333
+     FC=0.99 )
*

*
* File: 2PA1576R.PRM
*
*
.MODEL Q2PA1576R/PS PNP(
+     IS=2.514E-14
+     NF=0.9978
+     ISE=5.697E-15
+     NE=1.421
+     BF=315.5  
+     IKF=0.08039
+     VAF=40.01
+     NR=1.001
+     ISC=2.533E-14
+     NC=1.25  
+     BR=9.217
+     IKR=0.047
+     VAR=32.02
+     RB=1
+     IRB=1E-06
+     RBM=1  
+     RE=0.6308
+     RC=0.956
+     XTB=0
+     EG=1.11
+     XTI=3
+     CJE=1.17E-11  
+     VJE=0.746
+     MJE=0.4143
+     TF=6.328E-10
+     XTF=6.555
+     VTF=2.416  
+     ITF=0.129
+     PTF=0
+     CJC=6.96E-12
+     VJC=0.778
+     MJC=0.6596  
+     XCJC=0.6288
+     TR=1E-32
+     CJS=0
+     VJS=0.75
+     MJS=0.333
+     FC=0.79 )
*

*
* File: 2PA1576S.PRM
*
*
.MODEL Q2PA1576S/PS PNP(
+     IS=2.515E-14
+     NF=0.993
+     ISE=3.596E-15
+     NE=1.414
+     BF=406.2 
+     IKF=0.08039
+     VAF=27.54
+     NR=0.998
+     ISC=5.876E-15
+     NC=1.15  
+     BR=12.22
+     IKR=0.02471
+     VAR=9.183
+     RB=1
+     IRB=1E-06
+     RBM=1  
+     RE=0.5387
+     RC=0.6883
+     XTB=0
+     EG=1.11
+     XTI=3
+     CJE=1.117E-11 
+     VJE=0.775
+     MJE=0.432
+     TF=5.807E-10
+     XTF=4.339
+     VTF=7.041
+     ITF=0.1482
+     PTF=0
+     CJC=7.054E-12
+     VJC=0.678
+     MJC=0.6696  
+     XCJC=0.6288
+     TR=1E-32
+     CJS=0
+     VJS=0.75
+     MJS=0.333
+     FC=0.8101)
*

*
* File: 2PA1774Q.PRM
*
*
.MODEL Q2PA1774Q/PS PNP(
+     IS=1.604E-14
+     NF=0.9982
+     ISE=3.351E-15
+     NE=1.397
+     BF=212.1
+     IKF=0.08039
+     VAF=37.2
+     NR=1.006
+     ISC=1.842E-14
+     NC=1.2  
+     BR=7.351
+     IKR=0.047
+     VAR=11.42
+     RB=1
+     IRB=1E-06
+     RBM=1  
+     RE=0.692
+     RC=0.6886
+     XTB=0
+     EG=1.11
+     XTI=3
+     CJE=1.307E-11
+     VJE=0.7282
+     MJE=0.396
+     TF=6.839E-10
+     XTF=9.882
+     VTF=5.669  
+     ITF=0.2739
+     PTF=0
+     CJC=6.848E-12
+     VJC=0.364
+     MJC=0.3835  
+     XCJC=0.6288
+     TR=1E-32
+     CJS=0
+     VJS=0.75
+     MJS=0.333
+     FC=0.99 )
*

*
* File: 2PA1774R.PRM
*
*
.MODEL Q2PA1774R/PS PNP(
+     IS=2.514E-14
+     NF=0.9978
+     ISE=5.697E-15
+     NE=1.421
+     BF=315.5  
+     IKF=0.08039
+     VAF=40.01
+     NR=1.001
+     ISC=2.533E-14
+     NC=1.25  
+     BR=9.217
+     IKR=0.047
+     VAR=32.02
+     RB=1
+     IRB=1E-06
+     RBM=1  
+     RE=0.6308
+     RC=0.956
+     XTB=0
+     EG=1.11
+     XTI=3
+     CJE=1.17E-11  
+     VJE=0.746
+     MJE=0.4143
+     TF=6.328E-10
+     XTF=6.555
+     VTF=2.416  
+     ITF=0.129
+     PTF=0
+     CJC=6.96E-12
+     VJC=0.778
+     MJC=0.6596  
+     XCJC=0.6288
+     TR=1E-32
+     CJS=0
+     VJS=0.75
+     MJS=0.333
+     FC=0.79 )
*

*
* File: 2PA1774S.PRM
*
*
.MODEL Q2PA1774S/PS PNP(
+     IS=2.515E-14
+     NF=0.993
+     ISE=3.596E-15
+     NE=1.414
+     BF=406.2 
+     IKF=0.08039
+     VAF=27.54
+     NR=0.998
+     ISC=5.876E-15
+     NC=1.15  
+     BR=12.22
+     IKR=0.02471
+     VAR=9.183
+     RB=1
+     IRB=1E-06
+     RBM=1  
+     RE=0.5387
+     RC=0.6883
+     XTB=0
+     EG=1.11
+     XTI=3
+     CJE=1.117E-11 
+     VJE=0.775
+     MJE=0.432
+     TF=5.807E-10
+     XTF=4.339
+     VTF=7.041
+     ITF=0.1482
+     PTF=0
+     CJC=7.054E-12
+     VJC=0.678
+     MJC=0.6696  
+     XCJC=0.6288
+     TR=1E-32
+     CJS=0
+     VJS=0.75
+     MJS=0.333
+     FC=0.8101)
*

*
* File: 2PC4081Q.PRM
*
*
.MODEL Q2PC4081Q/PS NPN(
+     IS=1.533E-14
+     NF=1.002
+     ISE=7.932E-16
+     NE=1.436
+     BF=178.7  
+     IKF=0.1216
+     VAF=69.7
+     NR=1.004
+     ISC=8.305E-14
+     NC=1.207  
+     BR=8.628
+     IKR=0.1121
+     VAR=44.7
+     RB=1
+     IRB=1E-06
+     RBM=1  
+     RE=0.361
+     RC=1.382
+     XTB=0
+     EG=1.11
+     XTI=3
+     CJE=1.457E-11  
+     VJE=0.65
+     MJE=0.3393
+     TF=5.275E-10
+     XTF=96.78
+     VTF=2.012  
+     ITF=0.4793
+     PTF=0
+     CJC=3.511E-12
+     VJC=0.4485
+     MJC=0.3646  
+     XCJC=0.6193
+     TR=1E-32
+     CJS=0
+     VJS=0.75
+     MJS=0.333